data/public_benchmarks/arpae_go/extracted/Challenge_1_Original_Dataset_2_Scenarios/Original_Dataset_Real-Time_Edition_2/Network_05R-010/scenario_7/case.raw
 0,    100, 33, 0, 0, 60.0 / Header line 1
Header line 2
Header line 3
  1001,'',   115, 1, 1, 1, 1, 1.0056172, -21.398781, 1.1, 0.9, 1.1, 0.9
  1002,'',   115, 1, 1, 1, 1, 1.0469483, -22.120992, 1.1, 0.9, 1.1, 0.9
  1003,'',   115, 1, 1, 1, 1, 1.0166096, -12.682129, 1.1, 0.9, 1.1, 0.9
  1004,'',   230, 2, 1, 1, 1, 1.0179857, -12.067825, 1.1, 0.9, 1.1, 0.9
  1005,'',   115, 1, 1, 1, 1, 1.0093158, -8.1212502, 1.1, 0.9, 1.1, 0.9
  1006,'',  13.8, 2, 1, 1, 1, 1.0028466, -6.389199, 1.1, 0.9, 1.1, 0.9
  1007,'',   115, 1, 1, 1, 1, 1.0497162, -22.03531, 1.1, 0.9, 1.1, 0.9
  1008,'',   115, 1, 1, 1, 1, 1.0180321, -12.648177, 1.1, 0.9, 1.1, 0.9
  1009,'',  13.8, 2, 1, 1, 1, 1.0069698, -12.533381, 1.1, 0.9, 1.1, 0.9
  1010,'',   115, 1, 1, 1, 1, 1.0499118, -21.340894, 1.1, 0.9, 1.1, 0.9
  1011,'',    22, 2, 1, 1, 1, 1.0499118, -21.340894, 1.1, 0.9, 1.1, 0.9
  1012,'',   115, 1, 1, 1, 1, 1.0188131, -21.373052, 1.1, 0.9, 1.1, 0.9
  1013,'',   115, 1, 1, 1, 1, 1.0118385, -19.008256, 1.1, 0.9, 1.1, 0.9
  1014,'',   115, 1, 1, 1, 1, 1.0130404, -16.550181, 1.1, 0.9, 1.1, 0.9
  1015,'',   115, 1, 1, 1, 1, 1.0537515, -22.120769, 1.1, 0.9, 1.1, 0.9
  1016,'',   115, 1, 1, 1, 1, 1.015, -9.1656209, 1.1, 0.9, 1.1, 0.9
  1017,'',   115, 1, 1, 1, 1, 1.0028438, -20.479261, 1.1, 0.9, 1.1, 0.9
  1018,'',   115, 1, 1, 1, 1, 1.00704, -19.044581, 1.1, 0.9, 1.1, 0.9
  1019,'',   115, 1, 1, 1, 1, 1.015, -20.738863, 1.1, 0.9, 1.1, 0.9
  1020,'',   115, 1, 1, 1, 1, 1.0150088, -10.522683, 1.1, 0.9, 1.1, 0.9
  1021,'',  13.8, 2, 1, 1, 1, 1, -6.937914, 1.1, 0.9, 1.1, 0.9
  1022,'',   115, 1, 1, 1, 1, 1.0177162, -12.342333, 1.1, 0.9, 1.1, 0.9
  1023,'',  13.8, 2, 1, 1, 1, 1.01, -11.962127, 1.1, 0.9, 1.1, 0.9
  1024,'',   115, 1, 1, 1, 1, 1.0057067, -17.901689, 1.1, 0.9, 1.1, 0.9
  1025,'',   115, 1, 1, 1, 1, 1.0177084, -8.7375406, 1.1, 0.9, 1.1, 0.9
  1026,'',  13.8, 2, 1, 1, 1, 1.03, -0.8063285, 1.1, 0.9, 1.1, 0.9
  1027,'',   115, 1, 1, 1, 1, 1, -21.244708, 1.1, 0.9, 1.1, 0.9
  1028,'',   115, 1, 1, 1, 1, 1.0210476, -11.72762, 1.1, 0.9, 1.1, 0.9
  1029,'',   115, 1, 1, 1, 1, 1.015, -21.03145, 1.1, 0.9, 1.1, 0.9
  1030,'',   115, 1, 1, 1, 1, 1.0255184, -18.013082, 1.1, 0.9, 1.1, 0.9
  1031,'',   115, 1, 1, 1, 1, 1.0320016, -21.03332, 1.1, 0.9, 1.1, 0.9
  1032,'',   115, 1, 1, 1, 1, 1.0013571, -15.132001, 1.1, 0.9, 1.1, 0.9
  1033,'',   230, 2, 1, 1, 1, 1.0080583, -19.029656, 1.1, 0.9, 1.1, 0.9
  1034,'',   115, 1, 1, 1, 1, 1.0068255, -7.3459827, 1.1, 0.9, 1.1, 0.9
  1035,'',  13.8, 2, 1, 1, 1, 1, -4.3085688, 1.1, 0.9, 1.1, 0.9
  1036,'',   115, 1, 1, 1, 1, 0.99784537, -12.77394, 1.1, 0.9, 1.1, 0.9
  1037,'',   115, 1, 1, 1, 1, 1.0004027, -21.308911, 1.1, 0.9, 1.1, 0.9
  1038,'',   115, 1, 1, 1, 1, 1.0124744, -13.329786, 1.1, 0.9, 1.1, 0.9
  1039,'',    22, 2, 1, 1, 1, 1, -12.184944, 1.1, 0.9, 1.1, 0.9
  1040,'',   115, 1, 1, 1, 1, 1.0065851, -18.788907, 1.1, 0.9, 1.1, 0.9
  1041,'',   115, 1, 1, 1, 1, 1.0074504, -8.0538103, 1.1, 0.9, 1.1, 0.9
  1042,'',  13.8, 2, 1, 1, 1, 1.0074504, -8.0538103, 1.1, 0.9, 1.1, 0.9
  1043,'',  13.8, 2, 1, 1, 1, 1.0227143, -4.5155271, 1.1, 0.9, 1.1, 0.9
  1044,'',   115, 1, 1, 1, 1, 1.0170414, -18.338622, 1.1, 0.9, 1.1, 0.9
  1045,'',   115, 1, 1, 1, 1, 0.99850389, -21.964995, 1.1, 0.9, 1.1, 0.9
  1046,'',   115, 1, 1, 1, 1, 1.0219545, -18.665348, 1.1, 0.9, 1.1, 0.9
  1047,'',   115, 1, 1, 1, 1, 1.0088708, -17.647114, 1.1, 0.9, 1.1, 0.9
  1048,'',    18, 2, 1, 1, 1, 1.0088708, -17.647114, 1.1, 0.9, 1.1, 0.9
  1049,'',    18, 2, 1, 1, 1, 1.0088708, -17.647114, 1.1, 0.9, 1.1, 0.9
  1050,'',    18, 2, 1, 1, 1, 1, -16.101959, 1.1, 0.9, 1.1, 0.9
  1051,'',    18, 2, 1, 1, 1, 1, -15.650104, 1.1, 0.9, 1.1, 0.9
  1052,'',    18, 2, 1, 1, 1, 1.0015423, -16.358723, 1.1, 0.9, 1.1, 0.9
  1053,'',   230, 2, 1, 1, 1, 1.0149711, -18.655885, 1.1, 0.9, 1.1, 0.9
  1054,'',   115, 1, 1, 1, 1, 1.0055709, -17.476252, 1.1, 0.9, 1.1, 0.9
  1055,'',   115, 1, 1, 1, 1, 1.0107693, -13.523646, 1.1, 0.9, 1.1, 0.9
  1056,'',   115, 1, 1, 1, 1, 1.015, -17.453236, 1.1, 0.9, 1.1, 0.9
  1057,'',    18, 2, 1, 1, 1, 1.015, -17.453236, 1.1, 0.9, 1.1, 0.9
  1058,'',   115, 1, 1, 1, 1, 1.0244682, -13.269221, 1.1, 0.9, 1.1, 0.9
  1059,'',    22, 2, 1, 1, 1, 1.0244682, -13.269221, 1.1, 0.9, 1.1, 0.9
  1060,'',    22, 2, 1, 1, 1, 1.0244682, -13.269221, 1.1, 0.9, 1.1, 0.9
  1061,'',   115, 1, 1, 1, 1, 1.0121092, -15.848147, 1.1, 0.9, 1.1, 0.9
  1062,'',  13.8, 2, 1, 1, 1, 1.0121092, -15.848147, 1.1, 0.9, 1.1, 0.9
  1063,'',  13.8, 2, 1, 1, 1, 1.0121092, -15.848147, 1.1, 0.9, 1.1, 0.9
  1064,'',   115, 1, 1, 1, 1, 0.99891102, -22.150967, 1.1, 0.9, 1.1, 0.9
  1065,'',   115, 1, 1, 1, 1, 1.0071388, -8.3552029, 1.1, 0.9, 1.1, 0.9
  1066,'',  13.8, 2, 1, 1, 1, 1, -1.4332548, 1.1, 0.9, 1.1, 0.9
  1067,'',   115, 1, 1, 1, 1, 1.0043502, -8.2797226, 1.1, 0.9, 1.1, 0.9
  1068,'',   115, 1, 1, 1, 1, 0.99370017, -11.305392, 1.1, 0.9, 1.1, 0.9
  1069,'',   115, 1, 1, 1, 1, 1.0251113, -11.930297, 1.1, 0.9, 1.1, 0.9
  1070,'',  13.8, 2, 1, 1, 1, 1.04, -7.5137874, 1.1, 0.9, 1.1, 0.9
  1071,'',   115, 1, 1, 1, 1, 1.011829, -20.708042, 1.1, 0.9, 1.1, 0.9
  1072,'',    18, 2, 1, 1, 1, 1.01, -17.905059, 1.1, 0.9, 1.1, 0.9
  1073,'',    18, 2, 1, 1, 1, 1.01, -16.051079, 1.1, 0.9, 1.1, 0.9
  1074,'',    18, 2, 1, 1, 1, 1.01, -16.636136, 1.1, 0.9, 1.1, 0.9
  1075,'',    18, 2, 1, 1, 1, 1.01, -17.450451, 1.1, 0.9, 1.1, 0.9
  1076,'',    18, 2, 1, 1, 1, 1.011829, -20.708042, 1.1, 0.9, 1.1, 0.9
  1077,'',    18, 2, 1, 1, 1, 1.011829, -20.708042, 1.1, 0.9, 1.1, 0.9
  1078,'',    18, 2, 1, 1, 1, 1.01, -17.609184, 1.1, 0.9, 1.1, 0.9
  1079,'',   500, 2, 1, 1, 1, 1.0474209, -24.496066, 1.1, 0.9, 1.1, 0.9
  1080,'',    18, 2, 1, 1, 1, 1.01, -17.417903, 1.1, 0.9, 1.1, 0.9
  1081,'',   230, 2, 1, 1, 1, 1.0157645, -19.001505, 1.1, 0.9, 1.1, 0.9
  1082,'',   115, 2, 1, 1, 1, 1.0165913, -11.015862, 1.1, 0.9, 1.1, 0.9
  1083,'',   115, 1, 1, 1, 1, 1.015, -14.994661, 1.1, 0.9, 1.1, 0.9
  1084,'',   115, 2, 1, 1, 1, 1.0242115, -12.152883, 1.1, 0.9, 1.1, 0.9
  1085,'',   115, 1, 1, 1, 1, 1.0120116, -17.831112, 1.1, 0.9, 1.1, 0.9
  1086,'',   115, 1, 1, 1, 1, 1.015, -19.783605, 1.1, 0.9, 1.1, 0.9
  1087,'',   115, 1, 1, 1, 1, 1.0253708, -15.836059, 1.1, 0.9, 1.1, 0.9
  1088,'',   115, 2, 1, 1, 1, 1, -9.7726908, 1.1, 0.9, 1.1, 0.9
  1089,'',   115, 1, 1, 1, 1, 0.99465302, -16.094142, 1.1, 0.9, 1.1, 0.9
  1090,'',   115, 2, 1, 1, 1, 1.02, -15.360028, 1.1, 0.9, 1.1, 0.9
  1091,'',   161, 1, 1, 1, 1, 1.0272526, -17.121382, 1.1, 0.9, 1.1, 0.9
  2001,'',   161, 1, 1, 1, 1, 1.0298455, -38.147619, 1.1, 0.9, 1.1, 0.9
  2002,'',   500, 1, 1, 1, 1, 1.0306868, -38.111703, 1.1, 0.9, 1.1, 0.9
  2003,'',   161, 1, 1, 1, 1, 1.0269695, -39.096381, 1.1, 0.9, 1.1, 0.9
  2004,'',  13.8, 2, 1, 1, 1, 1.0306868, -38.111703, 1.1, 0.9, 1.1, 0.9
  2005,'',  13.8, 2, 1, 1, 1, 1.0306868, -38.111703, 1.1, 0.9, 1.1, 0.9
  2006,'',  13.8, 2, 1, 1, 1, 1.0306868, -38.111703, 1.1, 0.9, 1.1, 0.9
  2007,'',   161, 1, 1, 1, 1, 1.0283049, -37.963142, 1.1, 0.9, 1.1, 0.9
  2008,'',   161, 1, 1, 1, 1, 1.0332977, -16.996756, 1.1, 0.9, 1.1, 0.9
  2009,'',   161, 1, 1, 1, 1, 1.0134805, -27.121435, 1.1, 0.9, 1.1, 0.9
  2010,'',   161, 1, 1, 1, 1, 1.02408, -20.553759, 1.1, 0.9, 1.1, 0.9
  2011,'',   500, 1, 1, 1, 1, 1.0414334, -17.233858, 1.1, 0.9, 1.1, 0.9
  2012,'',   161, 1, 1, 1, 1, 1.0320215, -14.949656, 1.1, 0.9, 1.1, 0.9
  2013,'',    18, 2, 1, 1, 1, 1.0334281, -16.002594, 1.1, 0.9, 1.1, 0.9
  2014,'',   161, 1, 1, 1, 1, 1.0329497, -17.591577, 1.1, 0.9, 1.1, 0.9
  2015,'',   161, 1, 1, 1, 1, 1.0146822, -33.601249, 1.1, 0.9, 1.1, 0.9
  2016,'',   161, 1, 1, 1, 1, 1.0103996, -41.501771, 1.1, 0.9, 1.1, 0.9
  2017,'',   500, 1, 1, 1, 1, 1.0256475, -17.73589, 1.1, 0.9, 1.1, 0.9
  2018,'',   161, 1, 1, 1, 1, 1.0258929, -16.783794, 1.1, 0.9, 1.1, 0.9
  2019,'',    20, 2, 1, 1, 1, 1.0256475, -17.73589, 1.1, 0.9, 1.1, 0.9
  2020,'',   161, 1, 1, 1, 1, 1.0155237, -27.559275, 1.1, 0.9, 1.1, 0.9
  2021,'',   500, 1, 1, 1, 1, 1.0312507, -36.731224, 1.1, 0.9, 1.1, 0.9
  2022,'',   161, 1, 1, 1, 1, 1.0319585, -37.537244, 1.1, 0.9, 1.1, 0.9
  2023,'',  13.8, 2, 1, 1, 1, 1.0282873, -36.264172, 1.1, 0.9, 1.1, 0.9
  2024,'',  13.8, 2, 1, 1, 1, 1.0269921, -36.065558, 1.1, 0.9, 1.1, 0.9
  2025,'',   161, 1, 1, 1, 1, 1.0148373, -27.252708, 1.1, 0.9, 1.1, 0.9
  2026,'',   161, 1, 1, 1, 1, 1.0329896, -15.848337, 1.1, 0.9, 1.1, 0.9
  2027,'',   161, 1, 1, 1, 1, 1.0315366, -38.325864, 1.1, 0.9, 1.1, 0.9
  2028,'',   161, 1, 1, 1, 1, 1.0136762, -28.354949, 1.1, 0.9, 1.1, 0.9
  2029,'',   161, 1, 1, 1, 1, 1.0340723, -17.528571, 1.1, 0.9, 1.1, 0.9
  2030,'',   161, 1, 1, 1, 1, 1.0211596, -39.495129, 1.1, 0.9, 1.1, 0.9
  2031,'',   161, 1, 1, 1, 1, 1.0330064, -16.253598, 1.1, 0.9, 1.1, 0.9
  2032,'',   161, 1, 1, 1, 1, 1.0291937, -37.733623, 1.1, 0.9, 1.1, 0.9
  2033,'',   161, 1, 1, 1, 1, 1.0216904, -39.931361, 1.1, 0.9, 1.1, 0.9
  2034,'',   161, 1, 1, 1, 1, 1.0118793, -41.320723, 1.1, 0.9, 1.1, 0.9
  2035,'',   161, 1, 1, 1, 1, 1.0305721, -16.817909, 1.1, 0.9, 1.1, 0.9
  2036,'',   161, 1, 1, 1, 1, 1.0150353, -27.344062, 1.1, 0.9, 1.1, 0.9
  2037,'',   161, 1, 1, 1, 1, 1.0164862, -33.191747, 1.1, 0.9, 1.1, 0.9
  2038,'',   161, 1, 1, 1, 1, 1.0261018, -39.298381, 1.1, 0.9, 1.1, 0.9
  2039,'',   161, 1, 1, 1, 1, 1.0143295, -33.83887, 1.1, 0.9, 1.1, 0.9
  2040,'',   161, 1, 1, 1, 1, 1.0331577, -37.87483, 1.1, 0.9, 1.1, 0.9
  2041,'',   161, 1, 1, 1, 1, 1.0327089, -13.06981, 1.1, 0.9, 1.1, 0.9
  2042,'',    18, 2, 1, 1, 1, 1.0242651, -10.884176, 1.1, 0.9, 1.1, 0.9
  2043,'',   161, 1, 1, 1, 1, 1.0112585, -41.409351, 1.1, 0.9, 1.1, 0.9
  2044,'',   161, 1, 1, 1, 1, 1.0134545, -40.452283, 1.1, 0.9, 1.1, 0.9
  2045,'',   161, 1, 1, 1, 1, 1.0149273, -27.747655, 1.1, 0.9, 1.1, 0.9
  2046,'',   161, 1, 1, 1, 1, 1.0126162, -41.196538, 1.1, 0.9, 1.1, 0.9
  2047,'',   161, 1, 1, 1, 1, 1.0244572, -39.481769, 1.1, 0.9, 1.1, 0.9
  2048,'',   161, 1, 1, 1, 1, 1.0318543, -17.55643, 1.1, 0.9, 1.1, 0.9
  2049,'',   161, 1, 1, 1, 1, 1.0169962, -24.25263, 1.1, 0.9, 1.1, 0.9
  2050,'',   161, 1, 1, 1, 1, 1.029102, -39.334933, 1.1, 0.9, 1.1, 0.9
  2051,'',   161, 1, 1, 1, 1, 1.013891, -30.915642, 1.1, 0.9, 1.1, 0.9
  2052,'',   161, 1, 1, 1, 1, 1.031699, -16.291483, 1.1, 0.9, 1.1, 0.9
  2053,'',   161, 1, 1, 1, 1, 1.0166538, -34.577201, 1.1, 0.9, 1.1, 0.9
  2054,'',   500, 1, 1, 1, 1, 1.0186263, -26.904458, 1.1, 0.9, 1.1, 0.9
  2055,'',   161, 1, 1, 1, 1, 1.016873, -27.210866, 1.1, 0.9, 1.1, 0.9
  2056,'',    18, 2, 1, 1, 1, 1.0186263, -26.904458, 1.1, 0.9, 1.1, 0.9
  2057,'',    18, 2, 1, 1, 1, 1.0073671, -25.284085, 1.1, 0.9, 1.1, 0.9
  2058,'',   161, 1, 1, 1, 1, 1.0332764, -12.682076, 1.1, 0.9, 1.1, 0.9
  2059,'',  13.8, 2, 1, 1, 1, 1.0227518, -11.587732, 1.1, 0.9, 1.1, 0.9
  2060,'',   161, 1, 1, 1, 1, 1.0278827, -38.783532, 1.1, 0.9, 1.1, 0.9
  2061,'',   161, 1, 1, 1, 1, 1.0210285, -21.955387, 1.1, 0.9, 1.1, 0.9
  2062,'',    18, 2, 1, 1, 1, 1.02, -20.732766, 1.1, 0.9, 1.1, 0.9
  2063,'',   161, 1, 1, 1, 1, 1.0140422, -40.948683, 1.1, 0.9, 1.1, 0.9
  2064,'',   161, 1, 1, 1, 1, 1.0298839, -38.166523, 1.1, 0.9, 1.1, 0.9
  2065,'',   161, 1, 1, 1, 1, 1.0065244, -41.111355, 1.1, 0.9, 1.1, 0.9
  2066,'',   161, 1, 1, 1, 1, 1.0296687, -15.019446, 1.1, 0.9, 1.1, 0.9
  2067,'',   161, 1, 1, 1, 1, 1.0133137, -27.168387, 1.1, 0.9, 1.1, 0.9
  2068,'',   161, 1, 1, 1, 1, 1.0127516, -26.013296, 1.1, 0.9, 1.1, 0.9
  2069,'',   161, 1, 1, 1, 1, 1.015, -40.970426, 1.1, 0.9, 1.1, 0.9
  2070,'',   161, 1, 1, 1, 1, 1.013639, -25.621652, 1.1, 0.9, 1.1, 0.9
  2071,'',    18, 2, 1, 1, 1, 1.0010582, -22.40383, 1.1, 0.9, 1.1, 0.9
  2072,'',   161, 1, 1, 1, 1, 1.0194354, -40.255697, 1.1, 0.9, 1.1, 0.9
  2073,'',   161, 1, 1, 1, 1, 1.0283055, -13.494558, 1.1, 0.9, 1.1, 0.9
  2074,'',   115, 1, 1, 1, 1, 1.0179127, -12.224543, 1.1, 0.9, 1.1, 0.9
  2075,'',   115, 1, 1, 1, 1, 1.0179127, -12.224543, 1.1, 0.9, 1.1, 0.9
  2076,'',    24, 2, 1, 1, 1, 1.0333011, -12.944711, 1.1, 0.9, 1.1, 0.9
  2077,'',   161, 1, 1, 1, 1, 1.0176036, -32.799644, 1.1, 0.9, 1.1, 0.9
  2078,'',  13.8, 2, 1, 1, 1, 1.02, -32.215861, 1.1, 0.9, 1.1, 0.9
  2079,'',   161, 1, 1, 1, 1, 1.0291827, -19.408955, 1.1, 0.9, 1.1, 0.9
  2080,'',   161, 1, 1, 1, 1, 1.0152307, -32.117469, 1.1, 0.9, 1.1, 0.9
  2081,'',   161, 1, 1, 1, 1, 1.0242121, -39.635611, 1.1, 0.9, 1.1, 0.9
  2082,'',   161, 1, 1, 1, 1, 1.0140249, -27.383228, 1.1, 0.9, 1.1, 0.9
  2083,'',    20, 2, 1, 1, 1, 1.02, -26.912349, 1.1, 0.9, 1.1, 0.9
  2084,'',    20, 2, 1, 1, 1, 1.0140249, -27.383228, 1.1, 0.9, 1.1, 0.9
  2085,'',    20, 2, 1, 1, 1, 1.0140249, -27.383228, 1.1, 0.9, 1.1, 0.9
  2086,'',   161, 1, 1, 1, 1, 1.0149652, -33.191412, 1.1, 0.9, 1.1, 0.9
  2087,'',   161, 1, 1, 1, 1, 1.0314328, -14.919597, 1.1, 0.9, 1.1, 0.9
  2088,'',   161, 1, 1, 1, 1, 1.0126744, -25.843231, 1.1, 0.9, 1.1, 0.9
  2089,'',    24, 2, 1, 1, 1, 1.0008316, -25.268336, 1.1, 0.9, 1.1, 0.9
  2090,'',   161, 1, 1, 1, 1, 1.0332222, -38.558322, 1.1, 0.9, 1.1, 0.9
  2091,'',   161, 1, 1, 1, 1, 1.0285794, -18.936503, 1.1, 0.9, 1.1, 0.9
  2092,'',   161, 1, 1, 1, 1, 1.0189173, -40.252741, 1.1, 0.9, 1.1, 0.9
  2093,'',   161, 1, 1, 1, 1, 1.0295703, -15.815125, 1.1, 0.9, 1.1, 0.9
  2094,'',  13.8, 2, 1, 1, 1, 1.0295703, -15.815125, 1.1, 0.9, 1.1, 0.9
  2095,'',  13.8, 2, 1, 1, 1, 1.0295703, -15.815125, 1.1, 0.9, 1.1, 0.9
  2096,'',   500, 1, 1, 1, 1, 1, -15.802157, 1.1, 0.9, 1.1, 0.9
  2097,'',   230, 1, 1, 1, 1, 1.0034594, -15.459961, 1.1, 0.9, 1.1, 0.9
  2098,'',   161, 1, 1, 1, 1, 1.0244089, -16.830329, 1.1, 0.9, 1.1, 0.9
  2099,'',    18, 2, 1, 1, 1, 1.0007441, -15.774653, 1.1, 0.9, 1.1, 0.9
  2100,'',    18, 2, 1, 1, 1, 1.0134699, -15.31291, 1.1, 0.9, 1.1, 0.9
  2101,'',   500, 1, 1, 1, 1, 1.0295943, -38.357573, 1.1, 0.9, 1.1, 0.9
  2102,'',   161, 1, 1, 1, 1, 1.0264776, -39.058902, 1.1, 0.9, 1.1, 0.9
  2103,'',    20, 2, 1, 1, 1, 1.0295943, -38.357573, 1.1, 0.9, 1.1, 0.9
  2104,'',    20, 2, 1, 1, 1, 1.0295943, -38.357573, 1.1, 0.9, 1.1, 0.9
  2105,'',    20, 2, 1, 1, 1, 1.0295943, -38.357573, 1.1, 0.9, 1.1, 0.9
  2106,'',   161, 1, 1, 1, 1, 1.0192957, -40.10212, 1.1, 0.9, 1.1, 0.9
  2107,'',   161, 1, 1, 1, 1, 1.0238702, -39.381603, 1.1, 0.9, 1.1, 0.9
  2108,'',   161, 1, 1, 1, 1, 1.0272874, -26.587689, 1.1, 0.9, 1.1, 0.9
  2109,'',   161, 1, 1, 1, 1, 1.0122578, -27.7846, 1.1, 0.9, 1.1, 0.9
...
0 / END OF BUS DATA, BEGIN LOAD DATA
1001, '1', 1, 1, 1, 14.378, 4.074, 0, 0, 0, 0, 1, 1, 0
1002, '1', 1, 1, 1, 10.665, 3.022, 0, 0, 0, 0, 1, 1, 0
1007, '1', 1, 1, 1, 4.849, 1.374, 0, 0, 0, 0, 1, 1, 0
1012, '1', 1, 1, 1, 2.065, 0.585, 0, 0, 0, 0, 1, 1, 0
1013, '1', 1, 1, 1, 20.221, 5.73, 0, 0, 0, 0, 1, 1, 0
1014, '1', 1, 1, 1, 1.536, 0.435, 0, 0, 0, 0, 1, 1, 0
1015, '1', 1, 1, 1, 5.195, 1.472, 0, 0, 0, 0, 1, 1, 0
1016, '1', 1, 1, 1, 1.999, 0.566, 0, 0, 0, 0, 1, 1, 0
1017, '1', 1, 1, 1, 12.693, 3.596, 0, 0, 0, 0, 1, 1, 0
1018, '1', 1, 1, 1, 0.048, 0.014, 0, 0, 0, 0, 1, 1, 0
1019, '1', 1, 1, 1, 42.742, 12.11, 0, 0, 0, 0, 1, 1, 0
1024, '1', 1, 1, 1, 43.616, 12.358, 0, 0, 0, 0, 1, 1, 0
1027, '1', 1, 1, 1, 70.026, 19.841, 0, 0, 0, 0, 1, 1, 0
1028, '1', 1, 1, 1, 6.929, 1.963, 0, 0, 0, 0, 1, 1, 0
1029, '1', 1, 1, 1, 57.554, 16.307, 0, 0, 0, 0, 1, 1, 0
1030, '1', 1, 1, 1, 17.039, 4.828, 0, 0, 0, 0, 1, 1, 0
1031, '1', 1, 1, 1, 6.397, 1.813, 0, 0, 0, 0, 1, 1, 0
1036, '1', 1, 1, 1, 9.407, 2.665, 0, 0, 0, 0, 1, 1, 0
1037, '1', 1, 1, 1, 70.736, 20.042, 0, 0, 0, 0, 1, 1, 0
1040, '1', 1, 1, 1, 30.691, 8.696, 0, 0, 0, 0, 1, 1, 0
1044, '1', 1, 1, 1, 10.158, 2.879, 0, 0, 0, 0, 1, 1, 0
1045, '1', 1, 1, 1, 68.194, 19.322, 0, 0, 0, 0, 1, 1, 0
1046, '1', 1, 1, 1, 7.669, 2.173, 0, 0, 0, 0, 1, 1, 0
1054, '1', 1, 1, 1, 10.37, 2.938, 0, 0, 0, 0, 1, 1, 0
1055, '1', 1, 1, 1, 2.752, 0.78, 0, 0, 0, 0, 1, 1, 0
1058, '1', 1, 1, 1, 9.309, 2.638, 0, 0, 0, 0, 1, 1, 0
1064, '1', 1, 1, 1, 85.627, 24.261, 0, 0, 0, 0, 1, 1, 0
1067, '1', 1, 1, 1, 70.261, 19.907, 0, 0, 0, 0, 1, 1, 0
1068, '1', 1, 1, 1, 41.1, 11.645, 0, 0, 0, 0, 1, 1, 0
1071, '1', 1, 1, 1, 63.283, 17.93, 0, 0, 0, 0, 1, 1, 0
1083, '1', 1, 1, 1, 27.637, 7.831, 0, 0, 0, 0, 1, 1, 0
1085, '1', 1, 1, 1, 14.735, 4.175, 0, 0, 0, 0, 1, 1, 0
1086, '1', 1, 1, 1, 27.449, 7.777, 0, 0, 0, 0, 1, 1, 0
1087, '1', 1, 1, 1, 0.629, 0.178, 0, 0, 0, 0, 1, 1, 0
1089, '1', 1, 1, 1, 28.094, 7.96, 0, 0, 0, 0, 1, 1, 0
1091, '1', 1, 1, 1, 8.041, 2.278, 0, 0, 0, 0, 1, 1, 0
2001, '1', 1, 1, 1, 23.601, 6.687, 0, 0, 0, 0, 1, 1, 0
2007, '1', 1, 1, 1, 4.656, 1.319, 0, 0, 0, 0, 1, 1, 0
2008, '1', 1, 1, 1, 3.934, 1.115, 0, 0, 0, 0, 1, 1, 0
2009, '1', 1, 1, 1, 19.1, 5.412, 0, 0, 0, 0, 1, 1, 0
2010, '1', 1, 1, 1, 27.724, 7.855, 0, 0, 0, 0, 1, 1, 0
2014, '1', 1, 1, 1, 12.411, 3.516, 0, 0, 0, 0, 1, 1, 0
2015, '1', 1, 1, 1, 2.287, 0.648, 0, 0, 0, 0, 1, 1, 0
2016, '1', 1, 1, 1, 33.806, 9.578, 0, 0, 0, 0, 1, 1, 0
2020, '1', 1, 1, 1, 23.414, 6.634, 0, 0, 0, 0, 1, 1, 0
2022, '1', 1, 1, 1, 5.644, 1.599, 0, 0, 0, 0, 1, 1, 0
2025, '1', 1, 1, 1, 19.336, 5.479, 0, 0, 0, 0, 1, 1, 0
2026, '1', 1, 1, 1, 9.064, 2.568, 0, 0, 0, 0, 1, 1, 0
2027, '1', 1, 1, 1, 1.735, 0.492, 0, 0, 0, 0, 1, 1, 0
2028, '1', 1, 1, 1, 6.949, 1.969, 0, 0, 0, 0, 1, 1, 0
2029, '1', 1, 1, 1, 1.562, 0.443, 0, 0, 0, 0, 1, 1, 0
2030, '1', 1, 1, 1, 23.009, 6.519, 0, 0, 0, 0, 1, 1, 0
2031, '1', 1, 1, 1, 2.815, 0.798, 0, 0, 0, 0, 1, 1, 0
2032, '1', 1, 1, 1, 1.637, 0.464, 0, 0, 0, 0, 1, 1, 0
2033, '1', 1, 1, 1, 6.623, 1.877, 0, 0, 0, 0, 1, 1, 0
2034, '1', 1, 1, 1, 2.606, 0.738, 0, 0, 0, 0, 1, 1, 0
2035, '1', 1, 1, 1, 2.286, 0.648, 0, 0, 0, 0, 1, 1, 0
2036, '1', 1, 1, 1, 20.296, 5.751, 0, 0, 0, 0, 1, 1, 0
2037, '1', 1, 1, 1, 1.709, 0.484, 0, 0, 0, 0, 1, 1, 0
2038, '1', 1, 1, 1, 1.271, 0.36, 0, 0, 0, 0, 1, 1, 0
2039, '1', 1, 1, 1, 2.713, 0.769, 0, 0, 0, 0, 1, 1, 0
2040, '1', 1, 1, 1, 7.762, 2.199, 0, 0, 0, 0, 1, 1, 0
2043, '1', 1, 1, 1, 2.067, 0.586, 0, 0, 0, 0, 1, 1, 0
2044, '1', 1, 1, 1, 13.375, 3.79, 0, 0, 0, 0, 1, 1, 0
2045, '1', 1, 1, 1, 11.033, 3.126, 0, 0, 0, 0, 1, 1, 0
2046, '1', 1, 1, 1, 10.803, 3.061, 0, 0, 0, 0, 1, 1, 0
2047, '1', 1, 1, 1, 7.299, 2.068, 0, 0, 0, 0, 1, 1, 0
2048, '1', 1, 1, 1, 3.132, 0.887, 0, 0, 0, 0, 1, 1, 0
2049, '1', 1, 1, 1, 5.648, 1.6, 0, 0, 0, 0, 1, 1, 0
2050, '1', 1, 1, 1, 1.785, 0.506, 0, 0, 0, 0, 1, 1, 0
2051, '1', 1, 1, 1, 8.712, 2.468, 0, 0, 0, 0, 1, 1, 0
2052, '1', 1, 1, 1, 12.122, 3.435, 0, 0, 0, 0, 1, 1, 0
2053, '1', 1, 1, 1, 14.219, 4.029, 0, 0, 0, 0, 1, 1, 0
2055, '1', 1, 1, 1, 24.217, 6.862, 0, 0, 0, 0, 1, 1, 0
2060, '1', 1, 1, 1, 1.852, 0.525, 0, 0, 0, 0, 1, 1, 0
2063, '1', 1, 1, 1, 32.024, 9.074, 0, 0, 0, 0, 1, 1, 0
2064, '1', 1, 1, 1, 4.904, 1.389, 0, 0, 0, 0, 1, 1, 0
2065, '1', 1, 1, 1, 38.244, 10.836, 0, 0, 0, 0, 1, 1, 0
2066, '1', 1, 1, 1, 3.472, 0.983, 0, 0, 0, 0, 1, 1, 0
2067, '1', 1, 1, 1, 26.339, 7.463, 0, 0, 0, 0, 1, 1, 0
2068, '1', 1, 1, 1, 2.811, 0.797, 0, 0, 0, 0, 1, 1, 0
2069, '1', 1, 1, 1, 10.7, 3.032, 0, 0, 0, 0, 1, 1, 0
2072, '1', 1, 1, 1, 4.737, 1.342, 0, 0, 0, 0, 1, 1, 0
2079, '1', 1, 1, 1, 2.186, 0.619, 0, 0, 0, 0, 1, 1, 0
2080, '1', 1, 1, 1, 8.264, 2.341, 0, 0, 0, 0, 1, 1, 0
2081, '1', 1, 1, 1, 2.179, 0.617, 0, 0, 0, 0, 1, 1, 0
2082, '1', 1, 1, 1, 28.811, 8.163, 0, 0, 0, 0, 1, 1, 0
2086, '1', 1, 1, 1, 1.07, 0.303, 0, 0, 0, 0, 1, 1, 0
2087, '1', 1, 1, 1, 3.854, 1.092, 0, 0, 0, 0, 1, 1, 0
2090, '1', 1, 1, 1, 1.183, 0.335, 0, 0, 0, 0, 1, 1, 0
2091, '1', 1, 1, 1, 8.319, 2.357, 0, 0, 0, 0, 1, 1, 0
2092, '1', 1, 1, 1, 11.766, 3.334, 0, 0, 0, 0, 1, 1, 0
2106, '1', 1, 1, 1, 7.03, 1.992, 0, 0, 0, 0, 1, 1, 0
2107, '1', 1, 1, 1, 36.19, 10.254, 0, 0, 0, 0, 1, 1, 0
2108, '1', 1, 1, 1, 1.047, 0.297, 0, 0, 0, 0, 1, 1, 0
2109, '1', 1, 1, 1, 16.501, 4.675, 0, 0, 0, 0, 1, 1, 0
2110, '1', 1, 1, 1, 4.192, 1.188, 0, 0, 0, 0, 1, 1, 0
2111, '1', 1, 1, 1, 6.809, 1.929, 0, 0, 0, 0, 1, 1, 0
2112, '1', 1, 1, 1, 2.217, 0.628, 0, 0, 0, 0, 1, 1, 0
2114, '1', 1, 1, 1, 34.543, 9.787, 0, 0, 0, 0, 1, 1, 0
2121, '1', 1, 1, 1, 1.139, 0.323, 0, 0, 0, 0, 1, 1, 0
2122, '1', 1, 1, 1, 3.281, 0.93, 0, 0, 0, 0, 1, 1, 0
2124, '1', 1, 1, 1, 10.388, 2.943, 0, 0, 0, 0, 1, 1, 0
2125, '1', 1, 1, 1, 1.98, 0.561, 0, 0, 0, 0, 1, 1, 0
2126, '1', 1, 1, 1, 6.948, 1.968, 0, 0, 0, 0, 1, 1, 0
2129, '1', 1, 1, 1, 3.237, 0.917, 0, 0, 0, 0, 1, 1, 0
2132, '1', 1, 1, 1, 5.827, 1.651, 0, 0, 0, 0, 1, 1, 0
2133, '1', 1, 1, 1, 2.772, 0.785, 0, 0, 0, 0, 1, 1, 0
3002, '1', 1, 1, 1, 54.663, 15.488, 0, 0, 0, 0, 1, 1, 0
3005, '1', 1, 1, 1, 3.556, 1.008, 0, 0, 0, 0, 1, 1, 0
3006, '1', 1, 1, 1, 3.558, 1.008, 0, 0, 0, 0, 1, 1, 0
3007, '1', 1, 1, 1, 7.248, 2.054, 0, 0, 0, 0, 1, 1, 0
3008, '1', 1, 1, 1, 9.595, 2.719, 0, 0, 0, 0, 1, 1, 0
3009, '1', 1, 1, 1, 6.074, 1.721, 0, 0, 0, 0, 1, 1, 0
3010, '1', 1, 1, 1, 2.262, 0.641, 0, 0, 0, 0, 1, 1, 0
3011, '1', 1, 1, 1, 13.144, 3.724, 0, 0, 0, 0, 1, 1, 0
3012, '1', 1, 1, 1, 0.273, 0.077, 0, 0, 0, 0, 1, 1, 0
3013, '1', 1, 1, 1, 31.268, 8.859, 0, 0, 0, 0, 1, 1, 0
3014, '1', 1, 1, 1, 10.657, 3.019, 0, 0, 0, 0, 1, 1, 0
3015, '1', 1, 1, 1, 2.598, 0.736, 0, 0, 0, 0, 1, 1, 0
3021, '1', 1, 1, 1, 0.94, 0.266, 0, 0, 0, 0, 1, 1, 0
3022, '1', 1, 1, 1, 11.91, 3.375, 0, 0, 0, 0, 1, 1, 0
3023, '1', 1, 1, 1, 5.041, 1.428, 0, 0, 0, 0, 1, 1, 0
3024, '1', 1, 1, 1, 4.907, 1.39, 0, 0, 0, 0, 1, 1, 0
3025, '1', 1, 1, 1, 6.623, 1.876, 0, 0, 0, 0, 1, 1, 0
3029, '1', 1, 1, 1, 2.357, 0.668, 0, 0, 0, 0, 1, 1, 0
3030, '1', 1, 1, 1, 62.829, 17.802, 0, 0, 0, 0, 1, 1, 0
3031, '1', 1, 1, 1, 7.136, 2.022, 0, 0, 0, 0, 1, 1, 0
3032, '1', 1, 1, 1, 35.291, 9.999, 0, 0, 0, 0, 1, 1, 0
3035, '1', 1, 1, 1, 1.678, 0.476, 0, 0, 0, 0, 1, 1, 0
3036, '1', 1, 1, 1, 2.81, 0.796, 0, 0, 0, 0, 1, 1, 0
3040, '1', 1, 1, 1, 7.075, 2.005, 0, 0, 0, 0, 1, 1, 0
3042, '1', 1, 1, 1, 4.239, 1.201, 0, 0, 0, 0, 1, 1, 0
3049, '1', 1, 1, 1, 5.126, 1.452, 0, 0, 0, 0, 1, 1, 0
3051, '1', 1, 1, 1, 70.37, 19.939, 0, 0, 0, 0, 1, 1, 0
3052, '1', 1, 1, 1, 3.912, 1.108, 0, 0, 0, 0, 1, 1, 0
3066, '1', 1, 1, 1, 10.673, 3.024, 0, 0, 0, 0, 1, 1, 0
3069, '1', 1, 1, 1, 1.847, 0.523, 0, 0, 0, 0, 1, 1, 0
3072, '1', 1, 1, 1, 2.899, 0.821, 0, 0, 0, 0, 1, 1, 0
3075, '1', 1, 1, 1, 5.901, 1.672, 0, 0, 0, 0, 1, 1, 0
3076, '1', 1, 1, 1, 5.228, 1.481, 0, 0, 0, 0, 1, 1, 0
3077, '1', 1, 1, 1, 33.253, 9.422, 0, 0, 0, 0, 1, 1, 0
3093, '1', 1, 1, 1, 2.444, 0.692, 0, 0, 0, 0, 1, 1, 0
3099, '1', 1, 1, 1, 5.85, 1.657, 0, 0, 0, 0, 1, 1, 0
3100, '1', 1, 1, 1, 4.13, 1.17, 0, 0, 0, 0, 1, 1, 0
3101, '1', 1, 1, 1, 4.569, 1.294, 0, 0, 0, 0, 1, 1, 0
3102, '1', 1, 1, 1, 36.449, 10.327, 0, 0, 0, 0, 1, 1, 0
3103, '1', 1, 1, 1, 19.043, 5.396, 0, 0, 0, 0, 1, 1, 0
3107, '1', 1, 1, 1, 7.201, 2.04, 0, 0, 0, 0, 1, 1, 0
3108, '1', 1, 1, 1, 11.393, 3.228, 0, 0, 0, 0, 1, 1, 0
3114, '1', 1, 1, 1, 47.614, 13.491, 0, 0, 0, 0, 1, 1, 0
3115, '1', 1, 1, 1, 4.638, 1.314, 0, 0, 0, 0, 1, 1, 0
3123, '1', 1, 1, 1, 31.999, 9.066, 0, 0, 0, 0, 1, 1, 0
3124, '1', 1, 1, 1, 31.259, 8.857, 0, 0, 0, 0, 1, 1, 0
3125, '1', 1, 1, 1, 44.2, 12.523, 0, 0, 0, 0, 1, 1, 0
3126, '1', 1, 1, 1, 4.823, 1.366, 0, 0, 0, 0, 1, 1, 0
3128, '1', 1, 1, 1, 1.366, 0.387, 0, 0, 0, 0, 1, 1, 0
3130, '1', 1, 1, 1, 44.634, 12.648, 0, 0, 0, 0, 1, 1, 0
3132, '1', 1, 1, 1, 4.632, 1.312, 0, 0, 0, 0, 1, 1, 0
3136, '1', 1, 1, 1, 22.743, 6.444, 0, 0, 0, 0, 1, 1, 0
3138, '1', 1, 1, 1, 5.303, 1.502, 0, 0, 0, 0, 1, 1, 0
3139, '1', 1, 1, 1, 7.224, 2.047, 0, 0, 0, 0, 1, 1, 0
3140, '1', 1, 1, 1, 0.108, 0.03, 0, 0, 0, 0, 1, 1, 0
3142, '1', 1, 1, 1, 3.424, 0.97, 0, 0, 0, 0, 1, 1, 0
3143, '1', 1, 1, 1, 2.787, 0.79, 0, 0, 0, 0, 1, 1, 0
3144, '1', 1, 1, 1, 2.691, 0.762, 0, 0, 0, 0, 1, 1, 0
3145, '1', 1, 1, 1, 1.424, 0.404, 0, 0, 0, 0, 1, 1, 0
3146, '1', 1, 1, 1, 5.83, 1.652, 0, 0, 0, 0, 1, 1, 0
3147, '1', 1, 1, 1, 16.835, 4.77, 0, 0, 0, 0, 1, 1, 0
4002, '1', 1, 1, 1, 0.532, 0.151, 0, 0, 0, 0, 1, 1, 0
4003, '1', 1, 1, 1, 67.24, 19.051, 0, 0, 0, 0, 1, 1, 0
4005, '1', 1, 1, 1, 86.703, 24.566, 0, 0, 0, 0, 1, 1, 0
4006, '1', 1, 1, 1, 1.455, 0.412, 0, 0, 0, 0, 1, 1, 0
4007, '1', 1, 1, 1, 97.013, 27.487, 0, 0, 0, 0, 1, 1, 0
4008, '1', 1, 1, 1, 17.164, 4.863, 0, 0, 0, 0, 1, 1, 0
4011, '1', 1, 1, 1, 8.478, 2.402, 0, 0, 0, 0, 1, 1, 0
4012, '1', 1, 1, 1, 7.258, 2.056, 0, 0, 0, 0, 1, 1, 0
4013, '1', 1, 1, 1, 48.781, 13.821, 0, 0, 0, 0, 1, 1, 0
4015, '1', 1, 1, 1, 84.415, 23.917, 0, 0, 0, 0, 1, 1, 0
4016, '1', 1, 1, 1, 3.299, 0.935, 0, 0, 0, 0, 1, 1, 0
4017, '1', 1, 1, 1, 47.309, 13.404, 0, 0, 0, 0, 1, 1, 0
4018, '1', 1, 1, 1, 3.77, 1.068, 0, 0, 0, 0, 1, 1, 0
4019, '1', 1, 1, 1, 71.748, 20.329, 0, 0, 0, 0, 1, 1, 0
4020, '1', 1, 1, 1, 62.232, 17.632, 0, 0, 0, 0, 1, 1, 0
4021, '1', 1, 1, 1, 16.888, 4.785, 0, 0, 0, 0, 1, 1, 0
4022, '1', 1, 1, 1, 2.94, 0.833, 0, 0, 0, 0, 1, 1, 0
4023, '1', 1, 1, 1, 2.675, 0.758, 0, 0, 0, 0, 1, 1, 0
4027, '1', 1, 1, 1, 34.397, 9.746, 0, 0, 0, 0, 1, 1, 0
4031, '1', 1, 1, 1, 1.452, 0.411, 0, 0, 0, 0, 1, 1, 0
4032, '1', 1, 1, 1, 48.274, 13.678, 0, 0, 0, 0, 1, 1, 0
4033, '1', 1, 1, 1, 66.688, 18.895, 0, 0, 0, 0, 1, 1, 0
4034, '1', 1, 1, 1, 19.883, 5.634, 0, 0, 0, 0, 1, 1, 0
4035, '1', 1, 1, 1, 41.815, 11.848, 0, 0, 0, 0, 1, 1, 0
4036, '1', 1, 1, 1, 18.525, 5.248, 0, 0, 0, 0, 1, 1, 0
4037, '1', 1, 1, 1, 15.172, 4.299, 0, 0, 0, 0, 1, 1, 0
4038, '1', 1, 1, 1, 44.003, 12.468, 0, 0, 0, 0, 1, 1, 0
4040, '1', 1, 1, 1, 119.202, 33.774, 0, 0, 0, 0, 1, 1, 0
4042, '1', 1, 1, 1, 113.663, 32.205, 0, 0, 0, 0, 1, 1, 0
4043, '1', 1, 1, 1, 1.307, 0.37, 0, 0, 0, 0, 1, 1, 0
4048, '1', 1, 1, 1, 6.922, 1.961, 0, 0, 0, 0, 1, 1, 0
...
0 / END OF LOAD DATA, BEGIN FIXED SHUNT DATA
0 / END OF FIXED SHUNT DATA, BEGIN GENERATOR DATA
1004, '1', 59.8, -30.38, 44.94, -30.38, 1.0179857, 0, 0, 0, 1.0, 0, 0, 1, 1, 1, 59.8, 0, 1, 1, 0, 1, 0, 1, 0, 1, 0, 1
1006, '1', 20.6, -4.94, 7.31, -4.94, 1.0023555, 0, 0, 0, 1.0, 0, 0, 1, 1, 1, 20.6, 0, 1, 1, 0, 1, 0, 1, 0, 1, 0, 1
1009, '1', 1.6, -11.88, 17.57, -11.88, 1.0069698, 0, 0, 0, 1.0, 0, 0, 1, 1, 1, 1.6, 0, 1, 1, 0, 1, 0, 1, 0, 1, 0, 1
1011, '1', 0, 0, 0, 0, 1.0499118, 0, 0, 0, 1.0, 0, 0, 1, 1, 1, 0, 0, 1, 1, 0, 1, 0, 1, 0, 1, 0, 1
1021, '1', 80.4, -28.73, 42.49, -28.73, 1, 0, 0, 0, 1.0, 0, 0, 1, 1, 1, 80.4, 0, 1, 1, 0, 1, 0, 1, 0, 1, 0, 1
1023, '1', 5.5, -25.92, 38.34, -25.92, 1.01, 0, 0, 0, 1.0, 0, 0, 1, 1, 1, 5.5, 0, 1, 1, 0, 1, 0, 1, 0, 1, 0, 1
1026, '1', 80.4, -17.88, 26.45, -17.88, 1.03, 0, 0, 0, 1.0, 0, 0, 1, 1, 1, 80.4, 0, 1, 1, 0, 1, 0, 1, 0, 1, 0, 1
1033, '1', 0.1, -40.03, 59.21, -40.03, 1.0080583, 0, 0, 0, 1.0, 0, 0, 1, 1, 1, 0.1, 0, 1, 1, 0, 1, 0, 1, 0, 1, 0, 1
1035, '1', 62.3, -12.96, 19.17, -12.96, 1, 0, 0, 0, 1.0, 0, 0, 1, 1, 1, 62.3, 0, 1, 1, 0, 1, 0, 1, 0, 1, 0, 1
1039, '1', 23.2, -21.24, 31.42, -21.24, 1, 0, 0, 0, 1.0, 0, 0, 1, 1, 1, 23.2, 0, 1, 1, 0, 1, 0, 1, 0, 1, 0, 1
1042, '1', 103.119, 23.321, 25.96, -17.55, 1.0079706, 0, 0, 0, 1.0, 0, 0, 1, 0, 1, 103.2, 0, 1, 1, 0, 1, 0, 1, 0, 1, 0, 1
1043, '1', 49.8, -8.47, 12.52, -8.47, 1.0232256, 0, 0, 0, 1.0, 0, 0, 1, 1, 1, 49.8, 0, 1, 1, 0, 1, 0, 1, 0, 1, 0, 1
1048, '1', 103.285, -14.471, 165.53, -36.1, 1.0089848, 0, 0, 0, 1.0, 0, 0, 1, 0, 1, 325.2, 97.56, 1, 1, 0, 1, 0, 1, 0, 1, 0, 1
1049, '1', 119.663, 3.735, 165.53, -36.1, 1.0089848, 0, 0, 0, 1.0, 0, 0, 1, 0, 1, 325.2, 97.56, 1, 1, 0, 1, 0, 1, 0, 1, 0, 1
1050, '1', 27.06925, -9.92, 45.5, -9.92, 1, 0, 0, 0, 1.0, 0, 0, 1, 1, 1, 89.4, 26.82, 1, 1, 0, 1, 0, 1, 0, 1, 0, 1
1051, '1', 27.06925, -9.92, 45.5, -9.92, 1, 0, 0, 0, 1.0, 0, 0, 1, 1, 1, 89.4, 26.82, 1, 1, 0, 1, 0, 1, 0, 1, 0, 1
1052, '1', 27.06925, -9.92, 45.5, -9.92, 1.0015423, 0, 0, 0, 1.0, 0, 0, 1, 1, 1, 89.4, 26.82, 1, 1, 0, 1, 0, 1, 0, 1, 0, 1
1053, '1', 56.788, -19.85, 91.01, -19.85, 1.0149619, 0, 0, 0, 1.0, 0, 0, 1, 0, 1, 178.8, 53.64, 1, 1, 0, 1, 0, 1, 0, 1, 0, 1
1057, '1', 17.32, -11.649, 25.56, -17.28, 1.015, 0, 0, 0, 1.0, 0, 0, 1, 0, 1, 17.4, 0, 1, 1, 0, 1, 0, 1, 0, 1, 0, 1
1059, '1', 5.294, 2.85, 2.85, -0.62, 1.0245419, 0, 0, 0, 1.0, 0, 0, 1, 0, 1, 5.6, 1.68, 1, 1, 0, 1, 0, 1, 0, 1, 0, 1
1060, '1', 0.635, 1.02, 1.02, -0.22, 1.0245419, 0, 0, 0, 1.0, 0, 0, 1, 0, 1, 2, 0.6, 1, 1, 0, 1, 0, 1, 0, 1, 0, 1
1062, '1', -0.006, 0, 0, 0, 1.0123583, 0, 0, 0, 1.0, 0, 0, 1, 0, 1, 1.5, 0.45, 1, 1, 0, 1, 0, 1, 0, 1, 0, 1
1063, '1', 81.116, 0, 0, 0, 1.0123583, 0, 0, 0, 1.0, 0, 0, 1, 0, 1, 230, 69, 1, 1, 0, 1, 0, 1, 0, 1, 0, 1
1066, '1', 98.4, -20.52, 30.35, -20.52, 1, 0, 0, 0, 1.0, 0, 0, 1, 1, 1, 98.4, 0, 1, 1, 0, 1, 0, 1, 0, 1, 0, 1
1070, '1', 118.2, -23.11, 34.19, -23.11, 1.04, 0, 0, 0, 1.0, 0, 0, 1, 1, 1, 118.2, 0, 1, 1, 0, 1, 0, 1, 0, 1, 0, 1
1072, '1', 58.175665, -21.33, 97.8, -21.33, 1.01, 0, 0, 0, 1.0, 0, 0, 1, 1, 1, 192.13, 57.64, 1, 1, 0, 1, 0, 1, 0, 1, 0, 1
1073, '1', 58.175665, -21.33, 97.8, -21.33, 1.01, 0, 0, 0, 1.0, 0, 0, 1, 1, 1, 192.13, 57.64, 1, 1, 0, 1, 0, 1, 0, 1, 0, 1
1074, '1', 58.175665, -21.33, 97.8, -21.33, 1.01, 0, 0, 0, 1.0, 0, 0, 1, 1, 1, 192.13, 57.64, 1, 1, 0, 1, 0, 1, 0, 1, 0, 1
1075, '1', 58.175665, -21.33, 97.8, -21.33, 1.01, 0, 0, 0, 1.0, 0, 0, 1, 1, 1, 192.13, 57.64, 1, 1, 0, 1, 0, 1, 0, 1, 0, 1
1076, '1', 61.022, -2.987, 97.8, -21.33, 1.0120651, 0, 0, 0, 1.0, 0, 0, 1, 0, 1, 192.13, 57.64, 1, 1, 0, 1, 0, 1, 0, 1, 0, 1
1077, '1', 61.022, -1.92, 97.8, -21.33, 1.0120651, 0, 0, 0, 1.0, 0, 0, 1, 0, 1, 192.13, 57.64, 1, 1, 0, 1, 0, 1, 0, 1, 0, 1
1078, '1', 28.916257, -10.6, 48.61, -10.6, 1.01, 0, 0, 0, 1.0, 0, 0, 1, 1, 1, 95.5, 28.65, 1, 1, 0, 1, 0, 1, 0, 1, 0, 1
1079, '1', 28.916257, -10.6, 48.61, -10.6, 1.0474209, 0, 0, 0, 1.0, 0, 0, 1, 1, 1, 95.5, 28.65, 1, 1, 0, 1, 0, 1, 0, 1, 0, 1
1080, '1', 28.916257, -10.6, 48.61, -10.6, 1.01, 0, 0, 0, 1.0, 0, 0, 1, 1, 1, 95.5, 28.65, 1, 1, 0, 1, 0, 1, 0, 1, 0, 1
1081, '1', 85.95, -31.8, 145.83, -31.8, 1.0157645, 0, 0, 0, 1.0, 0, 0, 1, 0, 1, 286.5, 85.95, 1, 1, 0, 1, 0, 1, 0, 1, 0, 1
1082, '1', 96.5, -21.6, 31.95, -21.6, 1.0154839, 0, 0, 0, 1.0, 0, 0, 1, 1, 1, 96.5, 0, 1, 1, 0, 1, 0, 1, 0, 1, 0, 1
1084, '1', 76.4, -16.63, 24.6, -16.63, 1.024902, 0, 0, 0, 1.0, 0, 0, 1, 1, 1, 76.4, 0, 1, 1, 0, 1, 0, 1, 0, 1, 0, 1
1088, '1', 59.4, -10.8, 15.97, -10.8, 1, 0, 0, 0, 1.0, 0, 0, 1, 1, 1, 59.4, 0, 1, 1, 0, 1, 0, 1, 0, 1, 0, 1
1090, '1', 123.7, -21.96, 32.48, -21.96, 1.02, 0, 0, 0, 1.0, 0, 0, 1, 1, 1, 123.7, 0, 1, 1, 0, 1, 0, 1, 0, 1, 0, 1
1090, '2', 29.2, -5.18, 7.67, -5.18, 1.02, 0, 0, 0, 1.0, 0, 0, 1, 1, 1, 29.2, 0, 1, 1, 0, 1, 0, 1, 0, 1, 0, 1
2004, '1', 0, 0, 199.43, -43.49, 1.0306831, 0, 0, 0, 1.0, 0, 0, 1, 0, 1, 391.8, 117.54, 1, 1, 0, 1, 0, 1, 0, 1, 0, 1
2005, '1', 0, 0, 199.43, -43.49, 1.0306831, 0, 0, 0, 1.0, 0, 0, 1, 0, 1, 391.8, 117.54, 1, 1, 0, 1, 0, 1, 0, 1, 0, 1
2006, '1', 124.437, -36.956, 199.43, -43.49, 1.0306831, 0, 0, 0, 1.0, 0, 0, 1, 0, 1, 391.8, 117.54, 1, 1, 0, 1, 0, 1, 0, 1, 0, 1
2013, '1', 79.4, -28.89, 42.73, -28.89, 1.0334281, 0, 0, 0, 1.0, 0, 0, 1, 1, 1, 79.4, 0, 1, 1, 0, 1, 0, 1, 0, 1, 0, 1
2019, '1', 152.37, -31.39, 46.43, -31.39, 1.0256475, 0, 0, 0, 1.0, 0, 0, 1, 0, 1, 152.9, 0, 1, 1, 0, 1, 0, 1, 0, 1, 0, 1
2023, '1', 25.232327, -9.25, 42.42, -9.25, 1.0282873, 0, 0, 0, 1.0, 0, 0, 1, 1, 1, 83.33, 25, 1, 1, 0, 1, 0, 1, 0, 1, 0, 1
2024, '1', 50.464682, -18.5, 84.83, -18.5, 1.0269921, 0, 0, 0, 1.0, 0, 0, 1, 1, 1, 166.67, 50, 1, 1, 0, 1, 0, 1, 0, 1, 0, 1
2042, '1', 51.1, -11.46, 16.95, -11.46, 1.0242651, 0, 0, 0, 1.0, 0, 0, 1, 1, 1, 51.1, 0, 1, 1, 0, 1, 0, 1, 0, 1, 0, 1
2056, '1', 5.896, -0.73, 2.8, -0.73, 1.0187495, 0, 0, 0, 1.0, 0, 0, 1, 0, 1, 6, 1.8, 1, 1, 0, 1, 0, 1, 0, 1, 0, 1
2057, '1', 218.00738, -87.84, 335.52, -87.84, 1.0073671, 0, 0, 0, 1.0, 0, 0, 1, 1, 1, 720, 216, 1, 1, 0, 1, 0, 1, 0, 1, 0, 1
2059, '1', 19.4, -11.52, 17.04, -11.52, 1.0227518, 0, 0, 0, 1.0, 0, 0, 1, 1, 1, 19.4, 0, 1, 1, 0, 1, 0, 1, 0, 1, 0, 1
2062, '1', 54, -19.5, 28.84, -19.5, 1.02, 0, 0, 0, 1.0, 0, 0, 1, 1, 1, 54, 0, 1, 1, 0, 1, 0, 1, 0, 1, 0, 1
2071, '1', 99.3, -21.6, 31.95, -21.6, 1.0010582, 0, 0, 0, 1.0, 0, 0, 1, 1, 1, 99.3, 0, 1, 1, 0, 1, 0, 1, 0, 1, 0, 1
2076, '1', 14.1, -4.32, 6.39, -4.32, 1.0335486, 0, 0, 0, 1.0, 0, 0, 1, 1, 1, 14.1, 0, 1, 1, 0, 1, 0, 1, 0, 1, 0, 1
2078, '1', 14.9, -16.2, 23.96, -16.2, 1.02, 0, 0, 0, 1.0, 0, 0, 1, 1, 1, 14.9, 0, 1, 1, 0, 1, 0, 1, 0, 1, 0, 1
2083, '1', 6.0557607, -2.22, 10.18, -2.22, 1.02, 0, 0, 0, 1.0, 0, 0, 1, 1, 1, 20, 6, 1, 1, 0, 1, 0, 1, 0, 1, 0, 1
2084, '1', 18.784, -2.22, 10.18, -2.22, 1.0143613, 0, 0, 0, 1.0, 0, 0, 1, 0, 1, 20, 6, 1, 1, 0, 1, 0, 1, 0, 1, 0, 1
2085, '1', 39.973, 4.399, 20.36, -4.44, 1.0143613, 0, 0, 0, 1.0, 0, 0, 1, 0, 1, 40, 12, 1, 1, 0, 1, 0, 1, 0, 1, 0, 1
2089, '1', 8, -9.73, 14.4, -9.73, 1.0008316, 0, 0, 0, 1.0, 0, 0, 1, 1, 1, 8, 0, 1, 1, 0, 1, 0, 1, 0, 1, 0, 1
2094, '1', 5.304, -1.44, 2.13, -1.44, 1.0295723, 0, 0, 0, 1.0, 0, 0, 1, 0, 1, 6.1, 0, 1, 1, 0, 1, 0, 1, 0, 1, 0, 1
2095, '1', 41.828, -11.45, 16.93, -11.45, 1.0295723, 0, 0, 0, 1.0, 0, 0, 1, 0, 1, 48.6, 0, 1, 1, 0, 1, 0, 1, 0, 1, 0, 1
2099, '1', 1.4, -1.44, 2.13, -1.44, 1.0007441, 0, 0, 0, 1.0, 0, 0, 1, 1, 1, 1.4, 0, 1, 1, 0, 1, 0, 1, 0, 1, 0, 1
2100, '1', 21, -21.6, 31.95, -21.6, 1.0134699, 0, 0, 0, 1.0, 0, 0, 1, 1, 1, 21, 0, 1, 1, 0, 1, 0, 1, 0, 1, 0, 1
2103, '1', 0, 0, 136.28, -29.72, 1.0296021, 0, 0, 0, 1.0, 0, 0, 1, 0, 1, 267.73, 80.32, 1, 1, 0, 1, 0, 1, 0, 1, 0, 1
2104, '1', 80.32, -29.72, 136.28, -29.72, 1.0296021, 0, 0, 0, 1.0, 0, 0, 1, 0, 1, 267.73, 80.32, 1, 1, 0, 1, 0, 1, 0, 1, 0, 1
2105, '1', 0, 0, 136.28, -29.72, 1.0296021, 0, 0, 0, 1.0, 0, 0, 1, 0, 1, 267.73, 80.32, 1, 1, 0, 1, 0, 1, 0, 1, 0, 1
2115, '1', 55.925006, -20.5, 94.02, -20.5, 1.0235906, 0, 0, 0, 1.0, 0, 0, 1, 1, 1, 184.72, 55.41, 1, 1, 0, 1, 0, 1, 0, 1, 0, 1
2116, '1', 55.925006, -20.5, 94.02, -20.5, 1.0271743, 0, 0, 0, 1.0, 0, 0, 1, 1, 1, 184.72, 55.41, 1, 1, 0, 1, 0, 1, 0, 1, 0, 1
2117, '1', 55.925006, -20.5, 94.02, -20.5, 1.022107, 0, 0, 0, 1.0, 0, 0, 1, 1, 1, 184.72, 55.41, 1, 1, 0, 1, 0, 1, 0, 1, 0, 1
2118, '1', 55.925006, -20.5, 94.02, -20.5, 1.0211877, 0, 0, 0, 1.0, 0, 0, 1, 1, 1, 184.72, 55.41, 1, 1, 0, 1, 0, 1, 0, 1, 0, 1
2119, '1', 55.925006, -20.5, 94.02, -20.5, 1.0263123, 0, 0, 0, 1.0, 0, 0, 1, 1, 1, 184.72, 55.41, 1, 1, 0, 1, 0, 1, 0, 1, 0, 1
2120, '1', 55.925006, -20.5, 94.02, -20.5, 1.0216363, 0, 0, 0, 1.0, 0, 0, 1, 1, 1, 184.72, 55.41, 1, 1, 0, 1, 0, 1, 0, 1, 0, 1
2123, '1', 167.4, -26.16, 38.7, -26.16, 1.0344542, 0, 0, 0, 1.0, 0, 0, 1, 1, 1, 167.4, 0, 1, 1, 0, 1, 0, 1, 0, 1, 0, 1
2127, '1', 226.7, 28.298539, 61.47, -41.56, 1.041584, 0, 0, 0, 1.0, 0, 0, 1, 1, 1, 226.7, 0, 1, 1, 0, 1, 0, 1, 0, 1, 0, 1
3004, '1', 29.8, -5.4, 7.99, -5.4, 1.0100831, 0, 0, 0, 1.0, 0, 0, 1, 1, 1, 29.8, 0, 1, 1, 0, 1, 0, 1, 0, 1, 0, 1
3017, '1', 56.6, -24.41, 36.1, -24.41, 1.01, 0, 0, 0, 1.0, 0, 0, 1, 1, 1, 56.6, 0, 1, 1, 0, 1, 0, 1, 0, 1, 0, 1
3020, '1', 46.8, -21.6, 31.95, -21.6, 1.03, 0, 0, 0, 1.0, 0, 0, 1, 1, 1, 46.8, 0, 1, 1, 0, 1, 0, 1, 0, 1, 0, 1
3028, '1', 37.6, -28.8, 42.6, -28.8, 1.04, 0, 0, 0, 1.0, 0, 0, 1, 1, 1, 37.6, 0, 1, 1, 0, 1, 0, 1, 0, 1, 0, 1
3034, '1', 94.3, -18.79, 27.8, -18.79, 1.03, 0, 0, 0, 1.0, 0, 0, 1, 1, 1, 94.3, 0, 1, 1, 0, 1, 0, 1, 0, 1, 0, 1
3039, '1', 155.9, -30.1, 44.52, -30.1, 1.04, 0, 0, 0, 1.0, 0, 0, 1, 1, 1, 155.9, 0, 1, 1, 0, 1, 0, 1, 0, 1, 0, 1
3043, '1', 0.39, -0.14, 0.66, -0.14, 1.0337615, 0, 0, 0, 1.0, 0, 0, 1, 0, 1, 1.3, 0.39, 1, 1, 0, 1, 0, 1, 0, 1, 0, 1
3044, '1', 28.394, 5.942, 45.5, -9.92, 1.0337615, 0, 0, 0, 1.0, 0, 0, 1, 0, 1, 89.4, 26.82, 1, 1, 0, 1, 0, 1, 0, 1, 0, 1
3045, '1', 0, 0, 227.52, -49.62, 1.0337615, 0, 0, 0, 1.0, 0, 0, 1, 0, 1, 447, 134.1, 1, 1, 0, 1, 0, 1, 0, 1, 0, 1
3048, '1', 148, -34.7, 51.33, -34.7, 1.0452942, 0, 0, 0, 1.0, 0, 0, 1, 1, 1, 148, 0, 1, 1, 0, 1, 0, 1, 0, 1, 0, 1
3055, '1', 83.1, -35.3, 52.22, -35.3, 1.04, 0, 0, 0, 1.0, 0, 0, 1, 1, 1, 83.1, 0, 1, 1, 0, 1, 0, 1, 0, 1, 0, 1
3056, '1', 83.1, -35.3, 52.22, -35.3, 1.04, 0, 0, 0, 1.0, 0, 0, 1, 1, 1, 83.1, 0, 1, 1, 0, 1, 0, 1, 0, 1, 0, 1
3057, '1', 83.1, -35.3, 52.22, -35.3, 1.04, 0, 0, 0, 1.0, 0, 0, 1, 1, 1, 83.1, 0, 1, 1, 0, 1, 0, 1, 0, 1, 0, 1
3060, '1', 71.9, -23.85, 35.28, -23.85, 1.04, 0, 0, 0, 1.0, 0, 0, 1, 1, 1, 71.9, 0, 1, 1, 0, 1, 0, 1, 0, 1, 0, 1
3061, '1', 0.6, -23.85, 35.28, -23.85, 1.04, 0, 0, 0, 1.0, 0, 0, 1, 1, 1, 0.6, 0, 1, 1, 0, 1, 0, 1, 0, 1, 0, 1
3062, '1', 71.9, -23.85, 35.28, -23.85, 1.04, 0, 0, 0, 1.0, 0, 0, 1, 1, 1, 71.9, 0, 1, 1, 0, 1, 0, 1, 0, 1, 0, 1
3063, '1', 71.9, -23.85, 35.28, -23.85, 1.04, 0, 0, 0, 1.0, 0, 0, 1, 1, 1, 71.9, 0, 1, 1, 0, 1, 0, 1, 0, 1, 0, 1
3065, '1', 41.7, -11.59, 17.15, -11.59, 1, 0, 0, 0, 1.0, 0, 0, 1, 1, 1, 41.7, 0, 1, 1, 0, 1, 0, 1, 0, 1, 0, 1
3068, '1', 31.1, -21.6, 31.95, -21.6, 1.04, 0, 0, 0, 1.0, 0, 0, 1, 1, 1, 31.1, 0, 1, 1, 0, 1, 0, 1, 0, 1, 0, 1
3071, '1', 6.8, -24.51, 36.25, -24.51, 1.0030305, 0, 0, 0, 1.0, 0, 0, 1, 1, 1, 6.8, 0, 1, 1, 0, 1, 0, 1, 0, 1, 0, 1
3074, '1', 18.4, -14.37, 21.26, -14.37, 1, 0, 0, 0, 1.0, 0, 0, 1, 1, 1, 18.4, 0, 1, 1, 0, 1, 0, 1, 0, 1, 0, 1
3081, '1', 212.2, -35.86, 53.04, -35.86, 1.04, 0, 0, 0, 1.0, 0, 0, 1, 1, 1, 212.2, 0, 1, 1, 0, 1, 0, 1, 0, 1, 0, 1
3084, '1', 158, -33.48, 49.52, -33.48, 1, 0, 0, 0, 1.0, 0, 0, 1, 1, 1, 158, 0, 1, 1, 0, 1, 0, 1, 0, 1, 0, 1
3086, '1', 51.5, -10.8, 15.97, -10.8, 1, 0, 0, 0, 1.0, 0, 0, 1, 1, 1, 51.5, 0, 1, 1, 0, 1, 0, 1, 0, 1, 0, 1
3087, '1', 50.381, -5.232, 15.97, -10.8, 1.0121118, 0, 0, 0, 1.0, 0, 0, 1, 0, 1, 51.5, 0, 1, 1, 0, 1, 0, 1, 0, 1, 0, 1
3092, '1', 52, -28.8, 42.6, -28.8, 1.04, 0, 0, 0, 1.0, 0, 0, 1, 1, 1, 52, 0, 1, 1, 0, 1, 0, 1, 0, 1, 0, 1
3095, '1', 69.9, -17.37, 25.69, -17.37, 1.04, 0, 0, 0, 1.0, 0, 0, 1, 1, 1, 69.9, 0, 1, 1, 0, 1, 0, 1, 0, 1, 0, 1
3098, '1', 113.4, -23.04, 34.08, -23.04, 1.04, 0, 0, 0, 1.0, 0, 0, 1, 1, 1, 113.4, 0, 1, 1, 0, 1, 0, 1, 0, 1, 0, 1
3105, '1', 0, -0.74, 17.071, -0.74, 1.0200016, 0, 0, 0, 1.0, 0, 0, 1, 1, 1, 0, 0, 1, 1, 0, 1, 0, 1, 0, 1, 0, 1
3106, '1', 0, -2.69, 62.477, -2.69, 1.0157898, 0, 0, 0, 1.0, 0, 0, 1, 1, 1, 0, 0, 1, 1, 0, 1, 0, 1, 0, 1, 0, 1
3110, '1', 62.5, -12.1, 17.89, -12.1, 1.04, 0, 0, 0, 1.0, 0, 0, 1, 1, 1, 62.5, 0, 1, 1, 0, 1, 0, 1, 0, 1, 0, 1
3112, '1', 47.4, -10.77, 15.93, -10.77, 1, 0, 0, 0, 1.0, 0, 0, 1, 1, 1, 47.4, 0, 1, 1, 0, 1, 0, 1, 0, 1, 0, 1
3113, '1', 8.1, -10.77, 15.93, -10.77, 1, 0, 0, 0, 1.0, 0, 0, 1, 1, 1, 8.1, 0, 1, 1, 0, 1, 0, 1, 0, 1, 0, 1
3117, '1', 51.1, -9.07, 13.42, -9.07, 1, 0, 0, 0, 1.0, 0, 0, 1, 1, 1, 51.1, 0, 1, 1, 0, 1, 0, 1, 0, 1, 0, 1
3118, '1', 29.1, -17.28, 25.56, -17.28, 1, 0, 0, 0, 1.0, 0, 0, 1, 1, 1, 29.1, 0, 1, 1, 0, 1, 0, 1, 0, 1, 0, 1
3120, '1', 0, 0, 0, 0, 1.0151344, 0, 0, 0, 1.0, 0, 0, 1, 1, 1, 0, 0, 1, 1, 0, 1, 0, 1, 0, 1, 0, 1
3122, '1', 129.7, -28.37, 41.96, -28.37, 1, 0, 0, 0, 1.0, 0, 0, 1, 1, 1, 129.7, 0, 1, 1, 0, 1, 0, 1, 0, 1, 0, 1
3127, '1', 78.2, -19.44, 28.76, -19.44, 1.0140932, 0, 0, 0, 1.0, 0, 0, 1, 1, 1, 78.2, 0, 1, 1, 0, 1, 0, 1, 0, 1, 0, 1
3129, '1', 77.6, -18.22, 26.94, -18.22, 1.010662, 0, 0, 0, 1.0, 0, 0, 1, 1, 1, 77.6, 0, 1, 1, 0, 1, 0, 1, 0, 1, 0, 1
3131, '1', 38, -16.42, 24.28, -16.42, 1.02, 0, 0, 0, 1.0, 0, 0, 1, 1, 1, 38, 0, 1, 1, 0, 1, 0, 1, 0, 1, 0, 1
3133, '1', 15.39, 8.883, 26.11, -5.69, 1.024409, 0, 0, 0, 1.0, 0, 0, 1, 0, 1, 51.3, 15.39, 1, 1, 0, 1, 0, 1, 0, 1, 0, 1
3133, '2', 15.39, 8.883, 26.11, -5.69, 1.024409, 0, 0, 0, 1.0, 0, 0, 1, 0, 1, 51.3, 15.39, 1, 1, 0, 1, 0, 1, 0, 1, 0, 1
3133, '3', 15.39, 8.883, 26.11, -5.69, 1.024409, 0, 0, 0, 1.0, 0, 0, 1, 0, 1, 51.3, 15.39, 1, 1, 0, 1, 0, 1, 0, 1, 0, 1
3137, '1', 35, -14.57, 21.56, -14.57, 1.0259077, 0, 0, 0, 1.0, 0, 0, 1, 1, 1, 35, 0, 1, 1, 0, 1, 0, 1, 0, 1, 0, 1
3141, '1', 67.7, -13.18, 19.49, -13.18, 1.015294, 0, 0, 0, 1.0, 0, 0, 1, 1, 1, 67.7, 0, 1, 1, 0, 1, 0, 1, 0, 1, 0, 1
4010, '1', 0.8, -29.03, 42.94, -29.03, 1.03, 0, 0, 0, 1.0, 0, 0, 1, 1, 1, 0.8, 0, 1, 1, 0, 1, 0, 1, 0, 1, 0, 1
4026, '1', 124.14309, -50.02, 191.06, -50.02, 1.03, 0, 0, 0, 1.0, 0, 0, 1, 1, 1, 410, 123, 1, 1, 0, 1, 0, 1, 0, 1, 0, 1
4030, '1', 188.45527, -75.93, 290.04, -75.93, 1.0127664, 0, 0, 0, 1.0, 0, 0, 1, 1, 1, 622.4, 186.72, 1, 1, 0, 1, 0, 1, 0, 1, 0, 1
4045, '1', 0, -1.54, 35.862, -1.54, 1.02, 0, 0, 0, 1.0, 0, 0, 1, 1, 1, 0, 0, 1, 1, 0, 1, 0, 1, 0, 1, 0, 1
4046, '1', 0, -0.47, 10.936, -0.47, 1.02, 0, 0, 0, 1.0, 0, 0, 1, 1, 1, 0, 0, 1, 1, 0, 1, 0, 1, 0, 1, 0, 1
4047, '1', 0, -3.23, 75.102, -3.23, 1.02, 0, 0, 0, 1.0, 0, 0, 1, 1, 1, 0, 0, 1, 1, 0, 1, 0, 1, 0, 1, 0, 1
4050, '1', 16.2, -28.8, 42.6, -28.8, 1, 0, 0, 0, 1.0, 0, 0, 1, 1, 1, 16.2, 0, 1, 1, 0, 1, 0, 1, 0, 1, 0, 1
4052, '1', 13.383231, -4.91, 22.5, -4.91, 1.04, 0, 0, 0, 1.0, 0, 0, 1, 1, 1, 44.2, 13.26, 1, 1, 0, 1, 0, 1, 0, 1, 0, 1
4058, '1', 43.601477, -15.98, 73.3, -15.98, 1.03, 0, 0, 0, 1.0, 0, 0, 1, 1, 1, 144, 43.2, 1, 1, 0, 1, 0, 1, 0, 1, 0, 1
4059, '1', 43.601477, -15.98, 73.3, -15.98, 1.03, 0, 0, 0, 1.0, 0, 0, 1, 1, 1, 144, 43.2, 1, 1, 0, 1, 0, 1, 0, 1, 0, 1
4060, '1', 43.601477, -15.98, 73.3, -15.98, 1.03, 0, 0, 0, 1.0, 0, 0, 1, 1, 1, 144, 43.2, 1, 1, 0, 1, 0, 1, 0, 1, 0, 1
4061, '1', 52.180462, -19.13, 87.72, -19.13, 1.03, 0, 0, 0, 1.0, 0, 0, 1, 1, 1, 172.33, 51.7, 1, 1, 0, 1, 0, 1, 0, 1, 0, 1
4062, '1', 52.180462, -19.13, 87.72, -19.13, 1.03, 0, 0, 0, 1.0, 0, 0, 1, 1, 1, 172.33, 51.7, 1, 1, 0, 1, 0, 1, 0, 1, 0, 1
4063, '1', 52.180462, -19.13, 87.72, -19.13, 1.03, 0, 0, 0, 1.0, 0, 0, 1, 1, 1, 172.33, 51.7, 1, 1, 0, 1, 0, 1, 0, 1, 0, 1
4065, '1', 14.231038, -5.22, 23.92, -5.22, 1.02, 0, 0, 0, 1.0, 0, 0, 1, 1, 1, 47, 14.1, 1, 1, 0, 1, 0, 1, 0, 1, 0, 1
4075, '1', 56.004, 22.565, 89.75, -19.57, 1.0170612, 0, 0, 0, 1.0, 0, 0, 1, 0, 1, 176.33, 52.9, 1, 1, 0, 1, 0, 1, 0, 1, 0, 1
4076, '1', 53.391614, -19.57, 89.75, -19.57, 1.03, 0, 0, 0, 1.0, 0, 0, 1, 1, 1, 176.33, 52.9, 1, 1, 0, 1, 0, 1, 0, 1, 0, 1
4077, '1', 53.391614, -19.57, 89.75, -19.57, 1.03, 0, 0, 0, 1.0, 0, 0, 1, 1, 1, 176.33, 52.9, 1, 1, 0, 1, 0, 1, 0, 1, 0, 1
4082, '1', 73.698608, -27.02, 123.89, -27.02, 1.04, 0, 0, 0, 1.0, 0, 0, 1, 1, 1, 243.4, 73.02, 1, 1, 0, 1, 0, 1, 0, 1, 0, 1
4083, '1', 73.698608, -27.02, 123.89, -27.02, 1.04, 0, 0, 0, 1.0, 0, 0, 1, 1, 1, 243.4, 73.02, 1, 1, 0, 1, 0, 1, 0, 1, 0, 1
4084, '1', 73.698608, -27.02, 123.89, -27.02, 1.04, 0, 0, 0, 1.0, 0, 0, 1, 1, 1, 243.4, 73.02, 1, 1, 0, 1, 0, 1, 0, 1, 0, 1
4085, '1', 106.58139, -39.07, 179.17, -39.07, 1.04, 0, 0, 0, 1.0, 0, 0, 1, 1, 1, 352, 105.6, 1, 1, 0, 1, 0, 1, 0, 1, 0, 1
4090, '1', 1.399, 0.37, 0.65, -0.17, 1.0105881, 0, 0, 0, 1.0, 0, 0, 1, 0, 1, 1.4, 0.42, 1, 1, 0, 1, 0, 1, 0, 1, 0, 1
4091, '1', 7.1155188, -2.87, 10.95, -2.87, 1.01, 0, 0, 0, 1.0, 0, 0, 1, 1, 1, 23.5, 7.05, 1, 1, 0, 1, 0, 1, 0, 1, 0, 1
4092, '1', 7.595, 1.698, 3.54, -0.93, 1.0105881, 0, 0, 0, 1.0, 0, 0, 1, 0, 1, 7.6, 2.28, 1, 1, 0, 1, 0, 1, 0, 1, 0, 1
4093, '1', 8.478065, -3.42, 13.05, -3.42, 1.01, 0, 0, 0, 1.0, 0, 0, 1, 1, 1, 28, 8.4, 1, 1, 0, 1, 0, 1, 0, 1, 0, 1
4094, '1', 8.478065, -3.42, 13.05, -3.42, 1.01, 0, 0, 0, 1.0, 0, 0, 1, 1, 1, 28, 8.4, 1, 1, 0, 1, 0, 1, 0, 1, 0, 1
4095, '1', 8.478065, -3.42, 13.05, -3.42, 1.01, 0, 0, 0, 1.0, 0, 0, 1, 1, 1, 28, 8.4, 1, 1, 0, 1, 0, 1, 0, 1, 0, 1
4096, '1', 26.298, 0.043, 13.05, -3.42, 1.0105881, 0, 0, 0, 1.0, 0, 0, 1, 0, 1, 28, 8.4, 1, 1, 0, 1, 0, 1, 0, 1, 0, 1
4097, '1', 8.478065, -3.42, 13.05, -3.42, 1.01, 0, 0, 0, 1.0, 0, 0, 1, 1, 1, 28, 8.4, 1, 1, 0, 1, 0, 1, 0, 1, 0, 1
4098, '1', 26.298, -0.247, 13.05, -3.42, 1.0105881, 0, 0, 0, 1.0, 0, 0, 1, 0, 1, 28, 8.4, 1, 1, 0, 1, 0, 1, 0, 1, 0, 1
4105, '1', 15.5, -25.92, 38.34, -25.92, 1.01, 0, 0, 0, 1.0, 0, 0, 1, 1, 1, 15.5, 0, 1, 1, 0, 1, 0, 1, 0, 1, 0, 1
4115, '1', 39.907463, -14.63, 67.09, -14.63, 1.04, 0, 0, 0, 1.0, 0, 0, 1, 1, 1, 131.8, 39.54, 1, 1, 0, 1, 0, 1, 0, 1, 0, 1
4116, '1', 39.907463, -14.63, 67.09, -14.63, 1.04, 0, 0, 0, 1.0, 0, 0, 1, 1, 1, 131.8, 39.54, 1, 1, 0, 1, 0, 1, 0, 1, 0, 1
4133, '1', 10.08, -3.73, 17.1, -3.73, 1.0214684, 0, 0, 0, 1.0, 0, 0, 1, 0, 1, 33.6, 10.08, 1, 1, 0, 1, 0, 1, 0, 1, 0, 1
4134, '1', 10.173678, -3.73, 17.1, -3.73, 1.0161481, 0, 0, 0, 1.0, 0, 0, 1, 1, 1, 33.6, 10.08, 1, 1, 0, 1, 0, 1, 0, 1, 0, 1
4135, '1', 10.173678, -3.73, 17.1, -3.73, 1.0165415, 0, 0, 0, 1.0, 0, 0, 1, 1, 1, 33.6, 10.08, 1, 1, 0, 1, 0, 1, 0, 1, 0, 1
4136, '1', 10.173678, -3.73, 17.1, -3.73, 1.0148495, 0, 0, 0, 1.0, 0, 0, 1, 1, 1, 33.6, 10.08, 1, 1, 0, 1, 0, 1, 0, 1, 0, 1
4137, '1', 20.16, -7.46, 34.2, -7.46, 1.0214684, 0, 0, 0, 1.0, 0, 0, 1, 0, 1, 67.2, 20.16, 1, 1, 0, 1, 0, 1, 0, 1, 0, 1
4138, '1', 0, -7.33, 33.59, -7.33, 1.0214684, 0, 0, 0, 1.0, 0, 0, 1, 0, 1, 66, 19.8, 1, 1, 0, 1, 0, 1, 0, 1, 0, 1
4142, '1', 5.8, -27.07, 40.04, -27.07, 1.04, 0, 0, 0, 1.0, 0, 0, 1, 1, 1, 5.8, 0, 1, 1, 0, 1, 0, 1, 0, 1, 0, 1
4153, '1', 9, -40.78, 60.32, -40.78, 1.04, 0, 0, 0, 1.0, 0, 0, 1, 1, 1, 9, 0, 1, 1, 0, 1, 0, 1, 0, 1, 0, 1
4160, '1', 59.88139, -21.95, 100.66, -21.95, 1.03, 0, 0, 0, 1.0, 0, 0, 1, 1, 1, 197.77, 59.33, 1, 1, 0, 1, 0, 1, 0, 1, 0, 1
4161, '1', 59.88139, -21.95, 100.66, -21.95, 1.03, 0, 0, 0, 1.0, 0, 0, 1, 1, 1, 197.77, 59.33, 1, 1, 0, 1, 0, 1, 0, 1, 0, 1
4162, '1', 59.88139, -21.95, 100.66, -21.95, 1.03, 0, 0, 0, 1.0, 0, 0, 1, 1, 1, 197.77, 59.33, 1, 1, 0, 1, 0, 1, 0, 1, 0, 1
4163, '1', 8.453, 4.58, 4.58, -1, 1.0234977, 0, 0, 0, 1.0, 0, 0, 1, 0, 1, 9, 2.7, 1, 1, 0, 1, 0, 1, 0, 1, 0, 1
4166, '1', 6.4, -28.94, 42.81, -28.94, 1.0110186, 0, 0, 0, 1.0, 0, 0, 1, 1, 1, 6.4, 0, 1, 1, 0, 1, 0, 1, 0, 1, 0, 1
4177, '1', 95, -21.6, 31.95, -21.6, 1.04, 0, 0, 0, 1.0, 0, 0, 1, 1, 1, 95, 0, 1, 1, 0, 1, 0, 1, 0, 1, 0, 1
4181, '1', 18.1, -28.81, 42.62, -28.81, 1.0324193, 0, 0, 0, 1.0, 0, 0, 1, 1, 1, 18.1, 0, 1, 1, 0, 1, 0, 1, 0, 1, 0, 1
4183, '1', 168, -29.23, 43.24, -29.23, 1.0278723, 0, 0, 0, 1.0, 0, 0, 1, 1, 1, 168, 0, 1, 1, 0, 1, 0, 1, 0, 1, 0, 1
4192, '1', 22.709103, -8.33, 38.17, -8.33, 1.02, 0, 0, 0, 1.0, 0, 0, 1, 1, 1, 75, 22.5, 1, 1, 0, 1, 0, 1, 0, 1, 0, 1
4192, '10', 55.642357, -20.4, 93.54, -20.4, 1.02, 0, 0, 0, 1.0, 0, 0, 1, 1, 1, 183.77, 55.13, 1, 1, 0, 1, 0, 1, 0, 1, 0, 1
4192, '2', 23.984, 7.411, 12.22, -2.66, 1.02, 0, 0, 0, 1.0, 0, 0, 1, 0, 1, 24, 7.2, 1, 1, 0, 1, 0, 1, 0, 1, 0, 1
4192, '3', 18.47007, -6.77, 31.05, -6.77, 1.02, 0, 0, 0, 1.0, 0, 0, 1, 1, 1, 61, 18.3, 1, 1, 0, 1, 0, 1, 0, 1, 0, 1
4192, '4', 3.1489956, -1.15, 5.29, -1.15, 1.02, 0, 0, 0, 1.0, 0, 0, 1, 1, 1, 10.4, 3.12, 1, 1, 0, 1, 0, 1, 0, 1, 0, 1
4192, '5', 80.844405, -29.64, 135.9, -29.64, 1.02, 0, 0, 0, 1.0, 0, 0, 1, 1, 1, 267, 80.1, 1, 1, 0, 1, 0, 1, 0, 1, 0, 1
4192, '6', 80.844405, -29.64, 135.9, -29.64, 1.02, 0, 0, 0, 1.0, 0, 0, 1, 1, 1, 267, 80.1, 1, 1, 0, 1, 0, 1, 0, 1, 0, 1
4192, '7', 80.844405, -29.64, 135.9, -29.64, 1.02, 0, 0, 0, 1.0, 0, 0, 1, 1, 1, 267, 80.1, 1, 1, 0, 1, 0, 1, 0, 1, 0, 1
4192, '8', 55.642357, -20.4, 93.54, -20.4, 1.02, 0, 0, 0, 1.0, 0, 0, 1, 1, 1, 183.77, 55.13, 1, 1, 0, 1, 0, 1, 0, 1, 0, 1
4192, '9', 55.642357, -20.4, 93.54, -20.4, 1.02, 0, 0, 0, 1.0, 0, 0, 1, 1, 1, 183.77, 55.13, 1, 1, 0, 1, 0, 1, 0, 1, 0, 1
4194, '1', 1.9, -29.03, 42.94, -29.03, 1.0123664, 0, 0, 0, 1.0, 0, 0, 1, 1, 1, 1.9, 0, 1, 1, 0, 1, 0, 1, 0, 1, 0, 1
4195, '1', 12.9, -13.25, 19.6, -13.25, 1.0341951, 0, 0, 0, 1.0, 0, 0, 1, 1, 1, 12.9, 0, 1, 1, 0, 1, 0, 1, 0, 1, 0, 1
5020, '1', 5, -17.28, 25.56, -17.28, 1.0251089, 0, 0, 0, 1.0, 0, 0, 1, 1, 1, 5, 0, 1, 1, 0, 1, 0, 1, 0, 1, 0, 1
5023, '1', 4.538, 2.44, 2.44, -0.53, 1.0248109, 0, 0, 0, 1.0, 0, 0, 1, 0, 1, 4.8, 1.44, 1, 1, 0, 1, 0, 1, 0, 1, 0, 1
5035, '1', 4.197, -0.47, 2.14, -0.47, 1.0229387, 0, 0, 0, 1.0, 0, 0, 1, 0, 1, 4.2, 1.26, 1, 1, 0, 1, 0, 1, 0, 1, 0, 1
5036, '1', 6.05, 0.178, 3.26, -0.71, 1.0229387, 0, 0, 0, 1.0, 0, 0, 1, 0, 1, 6.4, 1.92, 1, 1, 0, 1, 0, 1, 0, 1, 0, 1
5037, '1', 93.400025, -34.24, 157.01, -34.24, 1.02, 0, 0, 0, 1.0, 0, 0, 1, 1, 1, 308.47, 92.54, 1, 1, 0, 1, 0, 1, 0, 1, 0, 1
5038, '1', 93.400025, -34.24, 157.01, -34.24, 1.02, 0, 0, 0, 1.0, 0, 0, 1, 1, 1, 308.47, 92.54, 1, 1, 0, 1, 0, 1, 0, 1, 0, 1
5039, '1', 93.400025, -34.24, 157.01, -34.24, 1.0211479, 0, 0, 0, 1.0, 0, 0, 1, 1, 1, 308.47, 92.54, 1, 1, 0, 1, 0, 1, 0, 1, 0, 1
5040, '1', 93.400025, -34.24, 157.01, -34.24, 1.02, 0, 0, 0, 1.0, 0, 0, 1, 1, 1, 308.47, 92.54, 1, 1, 0, 1, 0, 1, 0, 1, 0, 1
5041, '1', 93.400025, -34.24, 157.01, -34.24, 1.02, 0, 0, 0, 1.0, 0, 0, 1, 1, 1, 308.47, 92.54, 1, 1, 0, 1, 0, 1, 0, 1, 0, 1
5042, '1', 93.400025, -34.24, 157.01, -34.24, 1.02, 0, 0, 0, 1.0, 0, 0, 1, 1, 1, 308.47, 92.54, 1, 1, 0, 1, 0, 1, 0, 1, 0, 1
5051, '1', 25.646147, -9.4, 43.11, -9.4, 1.0288603, 0, 0, 0, 1.0, 0, 0, 1, 1, 1, 84.7, 25.41, 1, 1, 0, 1, 0, 1, 0, 1, 0, 1
5057, '1', 231.794, -35.23, 161.53, -35.23, 1.0286955, 0, 0, 0, 1.0, 0, 0, 1, 0, 1, 317.35, 95.2, 1, 1, 0, 1, 0, 1, 0, 1, 0, 1
5058, '1', 96.084783, -35.23, 161.53, -35.23, 1.0221809, 0, 0, 0, 1.0, 0, 0, 1, 1, 1, 317.35, 95.2, 1, 1, 0, 1, 0, 1, 0, 1, 0, 1
5065, '1', 9.1455532, -1.18, 5.4, -1.18, 1.0267982, 0, 0, 0, 1.0, 0, 0, 1, 1, 1, 10.6, 3.18, 1, 1, 0, 1, 0, 1, 0, 1, 0, 1
5066, '1', 1.799, 0.92, 0.92, -0.2, 1.0258856, 0, 0, 0, 1.0, 0, 0, 1, 0, 1, 1.8, 0.54, 1, 1, 0, 1, 0, 1, 0, 1, 0, 1
5067, '1', 132.70191, -48.65, 223.08, -48.65, 1.03, 0, 0, 0, 1.0, 0, 0, 1, 1, 1, 438.27, 131.48, 1, 1, 0, 1, 0, 1, 0, 1, 0, 1
5068, '1', 132.70191, -48.65, 223.08, -48.65, 1.03, 0, 0, 0, 1.0, 0, 0, 1, 1, 1, 438.27, 131.48, 1, 1, 0, 1, 0, 1, 0, 1, 0, 1
5069, '1', 132.70191, -48.65, 223.08, -48.65, 1.03, 0, 0, 0, 1.0, 0, 0, 1, 1, 1, 438.27, 131.48, 1, 1, 0, 1, 0, 1, 0, 1, 0, 1
5089, '1', 123.872, -2.05, 47.569, -2.05, 1.0296844, 0, 0, 0, 1.0, 0, 0, 1, 0, 1, 123.9, 0, 1, 1, 0, 1, 0, 1, 0, 1, 0, 1
...
0 / END OF GENERATOR DATA, BEGIN BRANCH DATA
1001, 1064, '1', 0.00524, 0.0358, 0.00609, 221, 221, 221, 0, 0, 0, 0, 1, 1, 0, 1, 1, 0, 1, 0, 1, 0, 1
1001, 1064, '2', 0.00524, 0.0358, 0.00609, 221, 221, 221, 0, 0, 0, 0, 1, 1, 0, 1, 1, 0, 1, 0, 1, 0, 1
1001, 1071, '1', 0.00435, 0.02808, 0.00536, 221, 221, 221, 0, 0, 0, 0, 1, 1, 0, 1, 1, 0, 1, 0, 1, 0, 1
1001, 1071, '2', 0.00435, 0.02808, 0.00536, 221, 221, 221, 0, 0, 0, 0, 1, 1, 0, 1, 1, 0, 1, 0, 1, 0, 1
1002, 1007, '1', 0.07776, 0.46693, 0.06336, 98, 98, 98, 0, 0, 0, 0, 1, 1, 0, 1, 1, 0, 1, 0, 1, 0, 1
1010, 1002, '1', 0.05552, 0.1357, 0.01777, 98, 98, 98, 0, 0, 0, 0, 1, 1, 0, 1, 1, 0, 1, 0, 1, 0, 1
1022, 1003, '1', 0.00485, 0.02012, 0.00341, 221, 221, 221, 0, 0, 0, 0, 1, 1, 0, 1, 1, 0, 1, 0, 1, 0, 1
1055, 1003, '1', 0.01574, 0.03782, 0.00513, 98, 98, 98, 0, 0, 0, 0, 1, 1, 0, 1, 1, 0, 1, 0, 1, 0, 1
1004, 3133, '1', 0.0042, 0.03, 0.055, 523, 523, 523, 0, 0, 0, 0, 1, 1, 0, 1, 1, 0, 1, 0, 1, 0, 1
1025, 1005, '1', 0.01842, 0.0821, 0.01204, 149, 149, 149, 0, 0, 0, 0, 1, 1, 0, 1, 1, 0, 1, 0, 1, 0, 1
1005, 1061, '1', 0.00599, 0.02484, 0.00422, 221, 221, 221, 0, 0, 0, 0, 0, 1, 0, 1, 1, 0, 1, 0, 1, 0, 1
1067, 1005, '1', 0.01711, 0.04181, 0.00548, 98, 98, 98, 0, 0, 0, 0, 1, 1, 0, 1, 1, 0, 1, 0, 1, 0, 1
1007, 1015, '1', 0.06224, 0.37375, 0.05072, 98, 98, 98, 0, 0, 0, 0, 1, 1, 0, 1, 1, 0, 1, 0, 1, 0, 1
1031, 1007, '1', 0.04803, 0.27434, 0.04123, 98, 98, 98, 0, 0, 0, 0, 1, 1, 0, 1, 1, 0, 1, 0, 1, 0, 1
1008, 1032, '1', 0.04501, 0.11002, 0.01441, 98, 98, 98, 0, 0, 0, 0, 1, 1, 0, 1, 1, 0, 1, 0, 1, 0, 1
1008, 1069, '1', 0.0083, 0.03628, 0.00553, 149, 149, 149, 0, 0, 0, 0, 1, 1, 0, 1, 1, 0, 1, 0, 1, 0, 1
1010, 1015, '1', 0.04703, 0.28243, 0.03833, 98, 98, 98, 0, 0, 0, 0, 1, 1, 0, 1, 1, 0, 1, 0, 1, 0, 1
1010, 1030, '1', 0.0616, 0.3699, 0.0502, 98, 98, 98, 0, 0, 0, 0, 1, 1, 0, 1, 1, 0, 1, 0, 1, 0, 1
1012, 1087, '1', 0.04934, 0.20469, 0.03473, 149, 149, 149, 0, 0, 0, 0, 1, 1, 0, 1, 1, 0, 1, 0, 1, 0, 1
3051, 1012, '1', 0.0571, 0.24977, 0.03804, 149, 149, 149, 0, 0, 0, 0, 1, 1, 0, 1, 1, 0, 1, 0, 1, 0, 1
1013, 1031, '1', 0.04509, 0.27078, 0.03675, 98, 98, 98, 0, 0, 0, 0, 1, 1, 0, 1, 1, 0, 1, 0, 1, 0, 1
1047, 1013, '1', 0.00947, 0.06117, 0.01167, 221, 221, 221, 0, 0, 0, 0, 1, 1, 0, 1, 1, 0, 1, 0, 1, 0, 1
1086, 1013, '1', 0.079, 0.19311, 0.02529, 98, 98, 98, 0, 0, 0, 0, 1, 1, 0, 1, 1, 0, 1, 0, 1, 0, 1
1014, 1047, '1', 0.03566, 0.14794, 0.0251, 149, 149, 149, 0, 0, 0, 0, 1, 1, 0, 1, 1, 0, 1, 0, 1, 0, 1
1014, 1083, '1', 0.04105, 0.18293, 0.02682, 149, 149, 149, 0, 0, 0, 0, 1, 1, 0, 1, 1, 0, 1, 0, 1, 0, 1
1016, 1034, '1', 0.01828, 0.10976, 0.01489, 98, 98, 98, 0, 0, 0, 0, 1, 1, 0, 1, 1, 0, 1, 0, 1, 0, 1
1068, 1016, '1', 0.02773, 0.15837, 0.0238, 98, 98, 98, 0, 0, 0, 0, 1, 1, 0, 1, 1, 0, 1, 0, 1, 0, 1
1018, 1017, '1', 0.03227, 0.07887, 0.01033, 98, 98, 98, 0, 0, 0, 0, 1, 1, 0, 1, 1, 0, 1, 0, 1, 0, 1
1017, 1029, '1', 0.03244, 0.14188, 0.02161, 149, 149, 149, 0, 0, 0, 0, 1, 1, 0, 1, 1, 0, 1, 0, 1, 0, 1
1037, 1017, '1', 0.00752, 0.03352, 0.00491, 221, 221, 221, 0, 0, 0, 0, 1, 1, 0, 1, 1, 0, 1, 0, 1, 0, 1
1047, 1017, '1', 0.036, 0.156, 0.024, 150, 150, 150, 0, 0, 0, 0, 1, 1, 0, 1, 1, 0, 1, 0, 1, 0, 1
1024, 1018, '1', 0.01094, 0.06572, 0.00892, 98, 98, 98, 0, 0, 0, 0, 1, 1, 0, 1, 1, 0, 1, 0, 1, 0, 1
1019, 1040, '1', 0.04978, 0.20651, 0.03504, 149, 149, 149, 0, 0, 0, 0, 1, 1, 0, 1, 1, 0, 1, 0, 1, 0, 1
1019, 1045, '1', 0.01522, 0.0372, 0.00487, 221, 221, 221, 0, 0, 0, 0, 1, 1, 0, 1, 1, 0, 1, 0, 1, 0, 1
1019, 1071, '1', 0.0044, 0.028, 0.0054, 225, 225, 225, 0, 0, 0, 0, 1, 1, 0, 1, 1, 0, 1, 0, 1, 0, 1
1071, 1019, '2', 0.0044, 0.028, 0.0054, 225, 225, 225, 0, 0, 0, 0, 1, 1, 0, 1, 1, 0, 1, 0, 1, 0, 1
1019, 1084, '1', 0.03, 0.16, 0.025, 220, 220, 220, 0, 0, 0, 0, 1, 1, 0, 1, 1, 0, 1, 0, 1, 0, 1
1025, 1020, '1', 0.00828, 0.03434, 0.00583, 149, 149, 149, 0, 0, 0, 0, 1, 1, 0, 1, 1, 0, 1, 0, 1, 0, 1
1084, 1020, '1', 0.01056, 0.06337, 0.0086, 221, 221, 221, 0, 0, 0, 0, 1, 1, 0, 1, 1, 0, 1, 0, 1, 0, 1
1020, 3059, '1', 0.0189, 0.06, 0.006, 300, 300, 300, 0, 0, 0, 0, 1, 1, 0, 1, 1, 0, 1, 0, 1, 0, 1
1020, 3130, '1', 0.00996, 0.06938, 0.01134, 221, 221, 221, 0, 0, 0, 0, 1, 1, 0, 1, 1, 0, 1, 0, 1, 0, 1
1022, 1028, '1', 0.01433, 0.09253, 0.01765, 221, 221, 221, 0, 0, 0, 0, 1, 1, 0, 1, 1, 0, 1, 0, 1, 0, 1
1022, 1028, '2', 0.01433, 0.09253, 0.01765, 221, 221, 221, 0, 0, 0, 0, 1, 1, 0, 1, 1, 0, 1, 0, 1, 0, 1
1024, 1090, '1', 0.01414, 0.06303, 0.00924, 149, 149, 149, 0, 0, 0, 0, 1, 1, 0, 1, 1, 0, 1, 0, 1, 0, 1
1027, 1045, '1', 0.02505, 0.10957, 0.01669, 221, 221, 221, 0, 0, 0, 0, 1, 1, 0, 1, 1, 0, 1, 0, 1, 0, 1
1056, 1027, '1', 0.03121, 0.0763, 0.00999, 250, 250, 250, 0, 0, 0, 0, 1, 1, 0, 1, 1, 0, 1, 0, 1, 0, 1
1028, 3109, '1', 0.00428, 0.01875, 0.00286, 250, 250, 250, 0, 0, 0, 0, 1, 1, 0, 1, 1, 0, 1, 0, 1, 0, 1
1029, 1056, '1', 0.02054, 0.11733, 0.01763, 221, 221, 221, 0, 0, 0, 0, 1, 1, 0, 1, 1, 0, 1, 0, 1, 0, 1
1030, 1038, '1', 0.07404, 0.42285, 0.06354, 98, 98, 98, 0, 0, 0, 0, 1, 1, 0, 1, 1, 0, 1, 0, 1, 0, 1
1083, 1030, '1', 0.06537, 0.37334, 0.0561, 98, 98, 98, 0, 0, 0, 0, 1, 1, 0, 1, 1, 0, 1, 0, 1, 0, 1
1032, 1036, '1', 0.01956, 0.11746, 0.01594, 98, 98, 98, 0, 0, 0, 0, 1, 1, 0, 1, 1, 0, 1, 0, 1, 0, 1
1038, 1032, '1', 0.045, 0.11, 0.015, 155, 155, 155, 0, 0, 0, 0, 1, 1, 0, 1, 1, 0, 1, 0, 1, 0, 1
1033, 1081, '1', 0.003, 0.031, 0.059, 548, 548, 548, 0, 0, 0, 0, 1, 1, 0, 1, 1, 0, 1, 0, 1, 0, 1
1033, 3050, '1', 0.0139, 0.136, 0.262, 647, 647, 647, 0, 0, 0, 0, 1, 1, 0, 1, 1, 0, 1, 0, 1, 0, 1
1067, 1034, '1', 0.00795, 0.04771, 0.00647, 98, 98, 98, 0, 0, 0, 0, 1, 1, 0, 1, 1, 0, 1, 0, 1, 0, 1
1088, 1036, '1', 0.02065, 0.11793, 0.01772, 98, 98, 98, 0, 0, 0, 0, 1, 1, 0, 1, 1, 0, 1, 0, 1, 0, 1
1037, 1071, '1', 0.00669, 0.04319, 0.00824, 300, 300, 300, 0, 0, 0, 0, 1, 1, 0, 1, 1, 0, 1, 0, 1, 0, 1
1082, 1038, '1', 0.01115, 0.04969, 0.00729, 149, 149, 149, 0, 0, 0, 0, 1, 1, 0, 1, 1, 0, 1, 0, 1, 0, 1
1083, 1038, '1', 0.01, 0.05, 0.007, 221, 221, 221, 0, 0, 0, 0, 1, 1, 0, 1, 1, 0, 1, 0, 1, 0, 1
1040, 1090, '1', 0.02991, 0.13329, 0.01955, 149, 149, 149, 0, 0, 0, 0, 1, 1, 0, 1, 1, 0, 1, 0, 1, 0, 1
1065, 1041, '1', 0.00386, 0.02203, 0.00331, 98, 98, 98, 0, 0, 0, 0, 1, 1, 0, 1, 1, 0, 1, 0, 1, 0, 1
1041, 1067, '1', 0.00393, 0.01722, 0.00262, 149, 149, 149, 0, 0, 0, 0, 1, 1, 0, 1, 1, 0, 1, 0, 1, 0, 1
1044, 3019, '1', 0.03857, 0.17192, 0.02521, 149, 149, 149, 0, 0, 0, 0, 1, 1, 0, 1, 1, 0, 1, 0, 1, 0, 1
3130, 1044, '1', 0.02731, 0.19029, 0.03111, 221, 221, 221, 0, 0, 0, 0, 1, 1, 0, 1, 1, 0, 1, 0, 1, 0, 1
1045, 1064, '1', 0.00545, 0.03794, 0.0062, 221, 221, 221, 0, 0, 0, 0, 1, 1, 0, 1, 1, 0, 1, 0, 1, 0, 1
1087, 1046, '1', 0.03262, 0.14269, 0.02173, 149, 149, 149, 0, 0, 0, 0, 1, 1, 0, 1, 1, 0, 1, 0, 1, 0, 1
1046, 3009, '1', 0.05654, 0.23454, 0.0398, 149, 149, 149, 0, 0, 0, 0, 1, 1, 0, 1, 1, 0, 1, 0, 1, 0, 1
1047, 1085, '1', 0.00947, 0.06117, 0.01167, 221, 221, 221, 0, 0, 0, 0, 1, 1, 0, 1, 1, 0, 1, 0, 1, 0, 1
1053, 1081, '1', 0.003, 0.03, 0.06, 548, 548, 548, 0, 0, 0, 0, 1, 1, 0, 1, 1, 0, 1, 0, 1, 0, 1
1054, 1056, '1', 0.02202, 0.09633, 0.01467, 149, 149, 149, 0, 0, 0, 0, 1, 1, 0, 1, 1, 0, 1, 0, 1, 0, 1
1089, 1054, '1', 0.08737, 0.21357, 0.02796, 98, 98, 98, 0, 0, 0, 0, 1, 1, 0, 1, 1, 0, 1, 0, 1, 0, 1
1055, 1089, '1', 0.04982, 0.12179, 0.01595, 98, 98, 98, 0, 0, 0, 0, 1, 1, 0, 1, 1, 0, 1, 0, 1, 0, 1
1056, 1061, '1', 0.02267, 0.12946, 0.01945, 150, 150, 150, 0, 0, 0, 0, 1, 1, 0, 1, 1, 0, 1, 0, 1, 0, 1
1056, 1065, '1', 0.02269, 0.12962, 0.01948, 250, 250, 250, 0, 0, 0, 0, 1, 1, 0, 1, 1, 0, 1, 0, 1, 0, 1
1069, 1058, '1', 0.0074, 0.05155, 0.00843, 221, 221, 221, 0, 0, 0, 0, 1, 1, 0, 1, 1, 0, 1, 0, 1, 0, 1
1069, 1058, '2', 0.0074, 0.05155, 0.00843, 221, 221, 221, 0, 0, 0, 0, 1, 1, 0, 1, 1, 0, 1, 0, 1, 0, 1
1058, 1087, '1', 0.01573, 0.10956, 0.01791, 221, 221, 221, 0, 0, 0, 0, 1, 1, 0, 1, 1, 0, 1, 0, 1, 0, 1
1058, 1087, '2', 0.01573, 0.10956, 0.01791, 221, 221, 221, 0, 0, 0, 0, 1, 1, 0, 1, 1, 0, 1, 0, 1, 0, 1
1061, 3042, '1', 0.054, 0.18, 0.028, 221, 221, 221, 0, 0, 0, 0, 1, 1, 0, 1, 1, 0, 1, 0, 1, 0, 1
1088, 1068, '1', 0.02962, 0.16921, 0.02543, 98, 98, 98, 0, 0, 0, 0, 1, 1, 0, 1, 1, 0, 1, 0, 1, 0, 1
1082, 1069, '1', 0.02137, 0.0952, 0.01396, 149, 149, 149, 0, 0, 0, 0, 1, 1, 0, 1, 1, 0, 1, 0, 1, 0, 1
3048, 1079, '1', 0.0013, 0.015, 1.02, 2300, 2300, 2300, 0, 0, 0, 0, 1, 1, 0, 1, 1, 0, 1, 0, 1, 0, 1
3048, 1079, '2', 0.0013, 0.015, 1.02, 2300, 2300, 2300, 0, 0, 0, 0, 1, 1, 0, 1, 1, 0, 1, 0, 1, 0, 1
1081, 3058, '1', 0.0091, 0.089, 0.171, 548, 548, 548, 0, 0, 0, 0, 1, 1, 0, 1, 1, 0, 1, 0, 1, 0, 1
1084, 3130, '1', 0.02049, 0.09131, 0.01339, 221, 221, 221, 0, 0, 0, 0, 1, 1, 0, 1, 1, 0, 1, 0, 1, 0, 1
1085, 1086, '1', 0.03392, 0.14838, 0.0226, 149, 149, 149, 0, 0, 0, 0, 1, 1, 0, 1, 1, 0, 1, 0, 1, 0, 1
1090, 1085, '1', 0.02018, 0.13786, 0.02346, 221, 221, 221, 0, 0, 0, 0, 1, 1, 0, 1, 1, 0, 1, 0, 1, 0, 1
2029, 1091, '1', 0.0389, 0.17144, 0.0798, 187, 187, 187, 0, 0, 0, 0, 1, 1, 0, 1, 1, 0, 1, 0, 1, 0, 1
1091, 2048, '1', 0.02193, 0.09667, 0.045, 187, 187, 187, 0, 0, 0, 0, 1, 1, 0, 1, 1, 0, 1, 0, 1, 0, 1
2098, 1091, '1', 0.00554, 0.02443, 0.01137, 187, 187, 187, 0, 0, 0, 0, 1, 1, 0, 1, 1, 0, 1, 0, 1, 0, 1
2022, 2001, '1', 0.00839, 0.03697, 0.01721, 187, 187, 187, 0, 0, 0, 0, 1, 1, 0, 1, 1, 0, 1, 0, 1, 0, 1
2027, 2001, '1', 0.00955, 0.04062, 0.02032, 187, 187, 187, 0, 0, 0, 0, 1, 1, 0, 1, 1, 0, 1, 0, 1, 0, 1
2021, 2002, '1', 0.00097, 0.01175, 0.78032, 2295, 2295, 2295, 0, 0, 0, 0, 1, 1, 0, 1, 1, 0, 1, 0, 1, 0, 1
2002, 2101, '1', 0.00031, 0.0037, 0.24573, 2020, 2020, 2020, 0, 0, 0, 0, 1, 1, 0, 1, 1, 0, 1, 0, 1, 0, 1
2038, 2003, '1', 0.00353, 0.02067, 0.01032, 251, 251, 251, 0, 0, 0, 0, 1, 1, 0, 1, 1, 0, 1, 0, 1, 0, 1
2003, 2047, '1', 0.0013, 0.0099, 0.0052, 310, 310, 310, 0, 0, 0, 0, 1, 1, 0, 1, 1, 0, 1, 0, 1, 0, 1
2007, 2114, '1', 0.00888, 0.05207, 0.026, 251, 251, 251, 0, 0, 0, 0, 1, 1, 0, 1, 1, 0, 1, 0, 1, 0, 1
2007, 2122, '1', 0.00861, 0.03661, 0.01831, 187, 187, 187, 0, 0, 0, 0, 1, 1, 0, 1, 1, 0, 1, 0, 1, 0, 1
2014, 2008, '1', 0.02253, 0.09931, 0.04623, 187, 187, 187, 0, 0, 0, 0, 1, 1, 0, 1, 1, 0, 1, 0, 1, 0, 1
2008, 2052, '1', 0.01877, 0.08271, 0.0385, 187, 187, 187, 0, 0, 0, 0, 1, 1, 0, 1, 1, 0, 1, 0, 1, 0, 1
2009, 2049, '1', 0.01224, 0.07176, 0.03583, 251, 251, 251, 0, 0, 0, 0, 1, 1, 0, 1, 1, 0, 1, 0, 1, 0, 1
2009, 2082, '1', 0.00735, 0.03126, 0.01563, 187, 187, 187, 0, 0, 0, 0, 1, 1, 0, 1, 1, 0, 1, 0, 1, 0, 1
2109, 2009, '1', 0.00725, 0.03084, 0.01542, 250, 250, 250, 0, 0, 0, 0, 1, 1, 0, 1, 1, 0, 1, 0, 1, 0, 1
2061, 2010, '1', 0.02439, 0.10748, 0.05003, 187, 187, 187, 0, 0, 0, 0, 1, 1, 0, 1, 1, 0, 1, 0, 1, 0, 1
2010, 2079, '1', 0.02061, 0.09083, 0.04228, 187, 187, 187, 0, 0, 0, 0, 1, 1, 0, 1, 1, 0, 1, 0, 1, 0, 1
2010, 2091, '1', 0.02461, 0.10467, 0.05235, 187, 187, 187, 0, 0, 0, 0, 1, 1, 0, 1, 1, 0, 1, 0, 1, 0, 1
2127, 2011, '1', 0.00108, 0.01307, 0.86827, 2020, 2020, 2020, 0, 0, 0, 0, 1, 1, 0, 1, 1, 0, 1, 0, 1, 0, 1
2012, 2041, '1', 0.01245, 0.05297, 0.02649, 187, 187, 187, 0, 0, 0, 0, 1, 1, 0, 1, 1, 0, 1, 0, 1, 0, 1
2012, 2052, '1', 0.02008, 0.08851, 0.0412, 187, 187, 187, 0, 0, 0, 0, 1, 1, 0, 1, 1, 0, 1, 0, 1, 0, 1
2093, 2012, '1', 0.01029, 0.04536, 0.02111, 187, 187, 187, 0, 0, 0, 0, 1, 1, 0, 1, 1, 0, 1, 0, 1, 0, 1
...